/*---------------------------------------------------------------------------*\
| =========                 |                                                 |
| \\      /  F ield         | foam-extend: Open Source CFD                    |
|  \\    /   O peration     | Version:     4.0                                |
|   \\  /    A nd           | Web:         http://www.foam-extend.org         |
|    \\/     M anipulation  | For copyright notice see file Copyright         |
\*---------------------------------------------------------------------------*/
Build    : 4.0-268bb07d15d8
Exec     : PNPnonDFoam
Date     : Mar 13 2024
Time     : 20:41:48
Host     : sh-Precision-7920-Tower
PID      : 5912
CtrlDict : "/media/sh/drive1/NextFoam/tutorials/Coupled/2D_example_steady_PNPnonD_analysis/2D_example_steady_PNPnonD_alpha07/system/controlDict"
Case     : /media/sh/drive1/NextFoam/tutorials/Coupled/2D_example_steady_PNPnonD_analysis/2D_example_steady_PNPnonD_alpha07
nProcs   : 1
SigFpe   : Enabling floating point exception trapping (FOAM_SIGFPE).

// * * * * * * * * * * * * * * * * * * * * * * * * * * * * * * * * * * * * * //
Create time

--> FOAM Warning : 
    From function dlLibraryTable::open(const fileName& functionLibName)
    in file db/dlLibraryTable/dlLibraryTable.C at line 124
    could not load libslipEOF.so: cannot open shared object file: No such file or directory
Create mesh for time = 0

Reading field psiE

Reading field psiI

Reading field cPlus

Reading field cMinus

Reading transportProperties

****************************************************************

Scale Parameters
****************************************************************
Average-diffusivity's value: 3.36e-09 [0 2 -1 0 0 0 0]
Time-scale's value: 0.0297619 [0 0 1 0 0 0 0]
Potential-scale's value: 0.025852 [1 2 -3 0 0 -1 0]
Velocity-scale's value: 4.73398e-05 [0 1 -1 0 0 0 0]
pressure-scale's value: 4.73398e-06 [0 2 -2 0 0 0 0]
Debye-Length's value: 9.74139e-09 [0 1 0 0 0 0 0]
Dimensionless diffusion coefficient DPlus_nonD: 0.395833
Dimensionless diffusion coefficient DMinus_nonD: 0.604167
Dimensionless Debye-Length: 0.000974139
Schmidt Number: 297.619
Reynold Number: 0.000473398
Pelec Number: 0.140892
****************************************************************
Reading field psiEGrad

Reading field phiE

Reading field DPlusphiE

Reading field DMinusphiE

Reading field phiDcPlus

Reading field phiDcMinus

Reading field netCharge

Creating field PNP


Starting time loop


Starting time loop

Time = 1

         Steady solver/PNP-NS Iteration      # 1
BiCGStab:  Solving for PNP, Initial residual = (0.450596 0.687752 0.569174), Final residual = (2.64011e-26 4.02812e-26 6.66816e-26), No Iterations 112
maxResidual = 0.687752

ExecutionTime = 0.16 s  ClockTime = 0 s

Time = 2

         Steady solver/PNP-NS Iteration      # 1
BiCGStab:  Solving for PNP, Initial residual = (0.0222765 0.0344207 5.09536e-15), Final residual = (2.65647e-26 4.05482e-26 6.7116e-26), No Iterations 104
maxResidual = 0.0344207

ExecutionTime = 0.26 s  ClockTime = 0 s

Time = 3

         Steady solver/PNP-NS Iteration      # 1
BiCGStab:  Solving for PNP, Initial residual = (0.265321 0.403841 6.32363e-14), Final residual = (2.21771e-26 3.38518e-26 5.60297e-26), No Iterations 115
maxResidual = 0.403841

ExecutionTime = 0.37 s  ClockTime = 0 s

Time = 4

         Steady solver/PNP-NS Iteration      # 1
BiCGStab:  Solving for PNP, Initial residual = (0.02188 0.0337727 4.60602e-15), Final residual = (1.22892e-26 1.87564e-26 3.10475e-26), No Iterations 112
maxResidual = 0.0337727

ExecutionTime = 0.48 s  ClockTime = 1 s

Time = 5

         Steady solver/PNP-NS Iteration      # 1
BiCGStab:  Solving for PNP, Initial residual = (0.229921 0.351559 3.76929e-14), Final residual = (1.28385e-26 1.96075e-26 3.24746e-26), No Iterations 113
maxResidual = 0.351559

ExecutionTime = 0.59 s  ClockTime = 1 s

Time = 6

         Steady solver/PNP-NS Iteration      # 1
BiCGStab:  Solving for PNP, Initial residual = (0.0215139 0.0332441 4.4806e-15), Final residual = (2.43688e-26 3.71948e-26 6.15672e-26), No Iterations 109
maxResidual = 0.0332441

ExecutionTime = 0.69 s  ClockTime = 1 s

Time = 7

         Steady solver/PNP-NS Iteration      # 1
BiCGStab:  Solving for PNP, Initial residual = (0.203285 0.311197 3.51613e-14), Final residual = (2.22283e-26 3.39356e-26 5.61802e-26), No Iterations 107
maxResidual = 0.311197

ExecutionTime = 0.8 s  ClockTime = 1 s

Time = 8

         Steady solver/PNP-NS Iteration      # 1
BiCGStab:  Solving for PNP, Initial residual = (0.021185 0.0327559 4.38666e-15), Final residual = (3.1276e-26 4.77422e-26 7.9029e-26), No Iterations 104
maxResidual = 0.0327559

ExecutionTime = 0.9 s  ClockTime = 1 s

Time = 9

         Steady solver/PNP-NS Iteration      # 1
BiCGStab:  Solving for PNP, Initial residual = (0.182936 0.280115 3.12536e-14), Final residual = (1.95058e-26 2.97745e-26 4.92893e-26), No Iterations 115
maxResidual = 0.280115

ExecutionTime = 1.01 s  ClockTime = 1 s

Time = 10

         Steady solver/PNP-NS Iteration      # 1
BiCGStab:  Solving for PNP, Initial residual = (0.0208769 0.0322927 4.36313e-15), Final residual = (1.08456e-26 1.65548e-26 2.74064e-26), No Iterations 105
maxResidual = 0.0322927

ExecutionTime = 1.13 s  ClockTime = 1 s

Time = 11

         Steady solver/PNP-NS Iteration      # 1
BiCGStab:  Solving for PNP, Initial residual = (0.166593 0.25507 2.99807e-14), Final residual = (2.61633e-26 3.99393e-26 6.61226e-26), No Iterations 115
maxResidual = 0.25507

ExecutionTime = 1.24 s  ClockTime = 1 s

Time = 12

         Steady solver/PNP-NS Iteration      # 1
BiCGStab:  Solving for PNP, Initial residual = (0.0205828 0.0318478 4.58879e-15), Final residual = (1.80917e-26 2.7615e-26 4.57125e-26), No Iterations 108
maxResidual = 0.0318478

ExecutionTime = 1.34 s  ClockTime = 1 s

Time = 13

         Steady solver/PNP-NS Iteration      # 1
BiCGStab:  Solving for PNP, Initial residual = (0.153045 0.234276 2.91795e-14), Final residual = (2.39578e-26 3.6584e-26 6.07706e-26), No Iterations 113
maxResidual = 0.234276

ExecutionTime = 1.45 s  ClockTime = 2 s

Time = 14

         Steady solver/PNP-NS Iteration      # 1
BiCGStab:  Solving for PNP, Initial residual = (0.0202993 0.0314173 4.40054e-15), Final residual = (2.53641e-26 3.87164e-26 6.40445e-26), No Iterations 109
maxResidual = 0.0314173

ExecutionTime = 1.56 s  ClockTime = 2 s

Time = 15

         Steady solver/PNP-NS Iteration      # 1
BiCGStab:  Solving for PNP, Initial residual = (0.141562 0.216635 2.87898e-14), Final residual = (1.70769e-26 2.60673e-26 4.31565e-26), No Iterations 113
maxResidual = 0.216635

ExecutionTime = 1.66 s  ClockTime = 2 s

Time = 16

         Steady solver/PNP-NS Iteration      # 1
BiCGStab:  Solving for PNP, Initial residual = (0.0200244 0.0309989 4.63159e-15), Final residual = (1.76216e-26 2.68949e-26 4.45308e-26), No Iterations 114
maxResidual = 0.0309989

ExecutionTime = 1.77 s  ClockTime = 2 s

Time = 17

         Steady solver/PNP-NS Iteration      # 1
BiCGStab:  Solving for PNP, Initial residual = (0.131664 0.201421 2.5596e-14), Final residual = (2.17944e-26 3.32691e-26 5.50818e-26), No Iterations 107
maxResidual = 0.201421

ExecutionTime = 1.87 s  ClockTime = 2 s

Time = 18

         Steady solver/PNP-NS Iteration      # 1
BiCGStab:  Solving for PNP, Initial residual = (0.0197568 0.0305907 4.67707e-15), Final residual = (1.52254e-26 2.32373e-26 3.84714e-26), No Iterations 107
maxResidual = 0.0305907

ExecutionTime = 1.99 s  ClockTime = 2 s

Time = 19

         Steady solver/PNP-NS Iteration      # 1
BiCGStab:  Solving for PNP, Initial residual = (0.12302 0.188133 2.39751e-14), Final residual = (1.58024e-26 2.4123e-26 3.99412e-26), No Iterations 107
maxResidual = 0.188133

ExecutionTime = 2.09 s  ClockTime = 2 s

Time = 20

         Steady solver/PNP-NS Iteration      # 1
BiCGStab:  Solving for PNP, Initial residual = (0.0194961 0.0301918 4.64864e-15), Final residual = (2.01958e-26 3.08229e-26 5.10359e-26), No Iterations 113
maxResidual = 0.0301918

ExecutionTime = 2.21 s  ClockTime = 2 s

Time = 21

         Steady solver/PNP-NS Iteration      # 1
BiCGStab:  Solving for PNP, Initial residual = (0.115391 0.176405 2.42921e-14), Final residual = (3.28992e-27 5.02219e-27 8.31853e-27), No Iterations 109
maxResidual = 0.176405

ExecutionTime = 2.32 s  ClockTime = 2 s

Time = 22

         Steady solver/PNP-NS Iteration      # 1
BiCGStab:  Solving for PNP, Initial residual = (0.0192414 0.0298016 4.82063e-15), Final residual = (2.01025e-26 3.06838e-26 5.08213e-26), No Iterations 104
maxResidual = 0.0298016

ExecutionTime = 2.42 s  ClockTime = 3 s

Time = 23

         Steady solver/PNP-NS Iteration      # 1
BiCGStab:  Solving for PNP, Initial residual = (0.108598 0.16596 2.22852e-14), Final residual = (2.1663e-26 3.30674e-26 5.47475e-26), No Iterations 108
maxResidual = 0.16596

ExecutionTime = 2.52 s  ClockTime = 3 s

Time = 24

         Steady solver/PNP-NS Iteration      # 1
BiCGStab:  Solving for PNP, Initial residual = (0.018992 0.0294194 4.93426e-15), Final residual = (1.87195e-26 2.85841e-26 4.73983e-26), No Iterations 106
maxResidual = 0.0294194

ExecutionTime = 2.62 s  ClockTime = 3 s

Time = 25

         Steady solver/PNP-NS Iteration      # 1
BiCGStab:  Solving for PNP, Initial residual = (0.10252 0.156589 2.16775e-14), Final residual = (1.43749e-26 2.19459e-26 3.63378e-26), No Iterations 108
maxResidual = 0.156589

ExecutionTime = 2.73 s  ClockTime = 3 s

Time = 26

         Steady solver/PNP-NS Iteration      # 1
BiCGStab:  Solving for PNP, Initial residual = (0.0187474 0.0290444 4.92372e-15), Final residual = (1.28985e-26 1.96809e-26 3.25922e-26), No Iterations 109
maxResidual = 0.0290444

ExecutionTime = 2.83 s  ClockTime = 3 s

Time = 27

         Steady solver/PNP-NS Iteration      # 1
BiCGStab:  Solving for PNP, Initial residual = (0.0970587 0.148126 2.29289e-14), Final residual = (1.53435e-26 2.34207e-26 3.87781e-26), No Iterations 107
maxResidual = 0.148126

ExecutionTime = 2.94 s  ClockTime = 3 s

Time = 28

         Steady solver/PNP-NS Iteration      # 1
BiCGStab:  Solving for PNP, Initial residual = (0.0185073 0.0286759 4.97778e-15), Final residual = (1.4778e-26 2.25542e-26 3.73443e-26), No Iterations 112
maxResidual = 0.0286759

ExecutionTime = 3.04 s  ClockTime = 3 s

Time = 29

         Steady solver/PNP-NS Iteration      # 1
BiCGStab:  Solving for PNP, Initial residual = (0.0920951 0.14044 2.26481e-14), Final residual = (1.35471e-26 2.06801e-26 3.42541e-26), No Iterations 106
maxResidual = 0.14044

ExecutionTime = 3.15 s  ClockTime = 3 s

Time = 30

         Steady solver/PNP-NS Iteration      # 1
BiCGStab:  Solving for PNP, Initial residual = (0.0182714 0.0283137 5.16764e-15), Final residual = (1.30668e-26 1.99431e-26 3.30178e-26), No Iterations 114
maxResidual = 0.0283137

ExecutionTime = 3.26 s  ClockTime = 3 s

Time = 31

         Steady solver/PNP-NS Iteration      # 1
BiCGStab:  Solving for PNP, Initial residual = (0.0875618 0.133424 2.2301e-14), Final residual = (2.99014e-26 4.56421e-26 7.55662e-26), No Iterations 107
maxResidual = 0.133424

ExecutionTime = 3.37 s  ClockTime = 3 s

Time = 32

         Steady solver/PNP-NS Iteration      # 1
BiCGStab:  Solving for PNP, Initial residual = (0.0180393 0.0279573 5.02212e-15), Final residual = (2.59664e-26 3.96323e-26 6.56115e-26), No Iterations 106
maxResidual = 0.0279573

ExecutionTime = 3.48 s  ClockTime = 4 s

Time = 33

         Steady solver/PNP-NS Iteration      # 1
BiCGStab:  Solving for PNP, Initial residual = (0.0834029 0.126993 2.07957e-14), Final residual = (1.76097e-26 2.6881e-26 4.45147e-26), No Iterations 107
maxResidual = 0.126993

ExecutionTime = 3.58 s  ClockTime = 4 s

Time = 34

         Steady solver/PNP-NS Iteration      # 1
BiCGStab:  Solving for PNP, Initial residual = (0.0178109 0.0276064 5.29616e-15), Final residual = (2.95008e-26 4.5028e-26 7.45776e-26), No Iterations 107
maxResidual = 0.0276064

ExecutionTime = 3.68 s  ClockTime = 4 s

Time = 35

         Steady solver/PNP-NS Iteration      # 1
BiCGStab:  Solving for PNP, Initial residual = (0.0795726 0.121073 2.01138e-14), Final residual = (1.67117e-26 2.55114e-26 4.22385e-26), No Iterations 107
maxResidual = 0.121073

ExecutionTime = 3.79 s  ClockTime = 4 s

Time = 36

         Steady solver/PNP-NS Iteration      # 1
BiCGStab:  Solving for PNP, Initial residual = (0.0175861 0.0272608 5.19947e-15), Final residual = (3.03408e-26 4.63078e-26 7.66621e-26), No Iterations 107
maxResidual = 0.0272608

ExecutionTime = 3.89 s  ClockTime = 4 s

Time = 37

         Steady solver/PNP-NS Iteration      # 1
BiCGStab:  Solving for PNP, Initial residual = (0.0760324 0.115604 2.05593e-14), Final residual = (6.3929e-27 9.7589e-27 1.61551e-26), No Iterations 114
maxResidual = 0.115604

ExecutionTime = 4 s  ClockTime = 4 s

Time = 38

         Steady solver/PNP-NS Iteration      # 1
BiCGStab:  Solving for PNP, Initial residual = (0.0173645 0.0269201 5.12242e-15), Final residual = (3.11625e-26 4.75577e-26 7.88003e-26), No Iterations 106
maxResidual = 0.0269201

ExecutionTime = 4.1 s  ClockTime = 4 s

Time = 39

         Steady solver/PNP-NS Iteration      # 1
BiCGStab:  Solving for PNP, Initial residual = (0.0727497 0.110537 2.08938e-14), Final residual = (2.56169e-26 3.91046e-26 6.48171e-26), No Iterations 111
maxResidual = 0.110537

ExecutionTime = 4.21 s  ClockTime = 4 s

Time = 40

         Steady solver/PNP-NS Iteration      # 1
BiCGStab:  Solving for PNP, Initial residual = (0.0171461 0.0265843 5.5614e-15), Final residual = (1.40925e-26 2.15103e-26 3.56166e-26), No Iterations 106
maxResidual = 0.0265843

ExecutionTime = 4.33 s  ClockTime = 4 s

Time = 41

         Steady solver/PNP-NS Iteration      # 1
BiCGStab:  Solving for PNP, Initial residual = (0.0696969 0.105827 1.9046e-14), Final residual = (2.42328e-26 3.69897e-26 6.12263e-26), No Iterations 107
maxResidual = 0.105827

ExecutionTime = 4.43 s  ClockTime = 5 s

Time = 42

         Steady solver/PNP-NS Iteration      # 1
BiCGStab:  Solving for PNP, Initial residual = (0.0169308 0.026253 5.54982e-15), Final residual = (3.07982e-26 4.69881e-26 7.8159e-26), No Iterations 107
maxResidual = 0.026253

ExecutionTime = 4.54 s  ClockTime = 5 s

Time = 43

         Steady solver/PNP-NS Iteration      # 1
BiCGStab:  Solving for PNP, Initial residual = (0.0668503 0.101437 2.02714e-14), Final residual = (8.17592e-27 1.248e-26 2.06652e-26), No Iterations 108
maxResidual = 0.101437

ExecutionTime = 4.64 s  ClockTime = 5 s

Time = 44

         Steady solver/PNP-NS Iteration      # 1
BiCGStab:  Solving for PNP, Initial residual = (0.0167184 0.0259262 5.57512e-15), Final residual = (1.76142e-26 2.68843e-26 4.45398e-26), No Iterations 106
maxResidual = 0.0259262

ExecutionTime = 4.74 s  ClockTime = 5 s

Time = 45

         Steady solver/PNP-NS Iteration      # 1
BiCGStab:  Solving for PNP, Initial residual = (0.0641893 0.0973362 1.92683e-14), Final residual = (2.3378e-26 3.5686e-26 5.91345e-26), No Iterations 111
maxResidual = 0.0973362

ExecutionTime = 4.85 s  ClockTime = 5 s

Time = 46

         Steady solver/PNP-NS Iteration      # 1
BiCGStab:  Solving for PNP, Initial residual = (0.0165089 0.0256037 5.66562e-15), Final residual = (2.82267e-26 4.30829e-26 7.14266e-26), No Iterations 112
maxResidual = 0.0256037

ExecutionTime = 4.96 s  ClockTime = 5 s

Time = 47

         Steady solver/PNP-NS Iteration      # 1
BiCGStab:  Solving for PNP, Initial residual = (0.061696 0.0934957 1.867e-14), Final residual = (1.70861e-26 2.60811e-26 4.319e-26), No Iterations 114
maxResidual = 0.0934957

ExecutionTime = 5.07 s  ClockTime = 5 s

Time = 48

         Steady solver/PNP-NS Iteration      # 1
BiCGStab:  Solving for PNP, Initial residual = (0.0163021 0.0252852 5.68301e-15), Final residual = (1.2974e-26 1.97876e-26 3.27805e-26), No Iterations 108
maxResidual = 0.0252852

ExecutionTime = 5.18 s  ClockTime = 5 s

Time = 49

         Steady solver/PNP-NS Iteration      # 1
BiCGStab:  Solving for PNP, Initial residual = (0.0593546 0.0898913 1.91028e-14), Final residual = (1.48913e-26 2.27313e-26 3.76673e-26), No Iterations 108
maxResidual = 0.0898913

ExecutionTime = 5.28 s  ClockTime = 5 s

Time = 50

         Steady solver/PNP-NS Iteration      # 1
BiCGStab:  Solving for PNP, Initial residual = (0.0160979 0.0249708 5.73553e-15), Final residual = (1.98185e-26 3.02484e-26 5.00717e-26), No Iterations 112
maxResidual = 0.0249708

ExecutionTime = 5.4 s  ClockTime = 6 s

Time = 51

         Steady solver/PNP-NS Iteration      # 1
BiCGStab:  Solving for PNP, Initial residual = (0.0571514 0.0865016 1.86414e-14), Final residual = (1.39154e-26 2.12411e-26 3.51552e-26), No Iterations 108
maxResidual = 0.0865016

ExecutionTime = 5.51 s  ClockTime = 6 s

Time = 52

         Steady solver/PNP-NS Iteration      # 1
BiCGStab:  Solving for PNP, Initial residual = (0.0158963 0.02466 5.72701e-15), Final residual = (1.29246e-26 1.97265e-26 3.26766e-26), No Iterations 108
maxResidual = 0.02466

ExecutionTime = 5.61 s  ClockTime = 6 s

Time = 53

         Steady solver/PNP-NS Iteration      # 1
BiCGStab:  Solving for PNP, Initial residual = (0.055074 0.0833071 1.87291e-14), Final residual = (2.83788e-26 4.33183e-26 7.17275e-26), No Iterations 108
maxResidual = 0.0833071

ExecutionTime = 5.71 s  ClockTime = 6 s

Time = 54

         Steady solver/PNP-NS Iteration      # 1
BiCGStab:  Solving for PNP, Initial residual = (0.0156964 0.0243514 7.89564e-15), Final residual = (1.71945e-26 2.62428e-26 4.34299e-26), No Iterations 108
maxResidual = 0.0243514

ExecutionTime = 5.81 s  ClockTime = 6 s

Time = 55

         Steady solver/PNP-NS Iteration      # 1
BiCGStab:  Solving for PNP, Initial residual = (0.0531033 0.0802798 1.79712e-14), Final residual = (1.81954e-26 2.77747e-26 4.59879e-26), No Iterations 116
maxResidual = 0.0802798

ExecutionTime = 5.93 s  ClockTime = 6 s

Time = 56

         Steady solver/PNP-NS Iteration      # 1
BiCGStab:  Solving for PNP, Initial residual = (0.0154984 0.0240454 6.16303e-15), Final residual = (2.05683e-26 3.13911e-26 5.20258e-26), No Iterations 106
maxResidual = 0.0240454

ExecutionTime = 6.03 s  ClockTime = 6 s

Time = 57

         Steady solver/PNP-NS Iteration      # 1
BiCGStab:  Solving for PNP, Initial residual = (0.0512324 0.0774076 1.80651e-14), Final residual = (2.16495e-26 3.30481e-26 5.46848e-26), No Iterations 108
maxResidual = 0.0774076

ExecutionTime = 6.13 s  ClockTime = 6 s

Time = 58

         Steady solver/PNP-NS Iteration      # 1
BiCGStab:  Solving for PNP, Initial residual = (0.0153022 0.0237421 6.0156e-15), Final residual = (5.8785e-27 8.98814e-27 1.48589e-26), No Iterations 108
maxResidual = 0.0237421

ExecutionTime = 6.24 s  ClockTime = 6 s

Time = 59

         Steady solver/PNP-NS Iteration      # 1
BiCGStab:  Solving for PNP, Initial residual = (0.0494545 0.0746799 1.79433e-14), Final residual = (2.12982e-26 3.25116e-26 5.39098e-26), No Iterations 113
maxResidual = 0.0746799

ExecutionTime = 6.36 s  ClockTime = 7 s

Time = 60

         Steady solver/PNP-NS Iteration      # 1
BiCGStab:  Solving for PNP, Initial residual = (0.0151078 0.0234416 6.00323e-15), Final residual = (2.56313e-26 3.91172e-26 6.4826e-26), No Iterations 106
maxResidual = 0.0234416

ExecutionTime = 6.46 s  ClockTime = 7 s

Time = 61

         Steady solver/PNP-NS Iteration      # 1
BiCGStab:  Solving for PNP, Initial residual = (0.0477636 0.0720871 1.72979e-14), Final residual = (8.86222e-27 1.35274e-26 2.23929e-26), No Iterations 112
maxResidual = 0.0720871

ExecutionTime = 6.58 s  ClockTime = 7 s

Time = 62

         Steady solver/PNP-NS Iteration      # 1
BiCGStab:  Solving for PNP, Initial residual = (0.0149152 0.0231437 5.92996e-15), Final residual = (1.78843e-26 2.72859e-26 4.51844e-26), No Iterations 106
maxResidual = 0.0231437

ExecutionTime = 6.68 s  ClockTime = 7 s

Time = 63

         Steady solver/PNP-NS Iteration      # 1
BiCGStab:  Solving for PNP, Initial residual = (0.0461539 0.0696202 1.75706e-14), Final residual = (2.77549e-26 4.23706e-26 7.01969e-26), No Iterations 108
maxResidual = 0.0696202

ExecutionTime = 6.78 s  ClockTime = 7 s

Time = 64

         Steady solver/PNP-NS Iteration      # 1
BiCGStab:  Solving for PNP, Initial residual = (0.0147243 0.0228486 6.33266e-15), Final residual = (1.38471e-26 2.11341e-26 3.49694e-26), No Iterations 114
maxResidual = 0.0228486

ExecutionTime = 6.9 s  ClockTime = 7 s

Time = 65

         Steady solver/PNP-NS Iteration      # 1
BiCGStab:  Solving for PNP, Initial residual = (0.0446203 0.0672711 1.77299e-14), Final residual = (2.06089e-27 3.14893e-27 5.47436e-27), No Iterations 114
maxResidual = 0.0672711

ExecutionTime = 7.01 s  ClockTime = 7 s

Time = 66

         Steady solver/PNP-NS Iteration      # 1
BiCGStab:  Solving for PNP, Initial residual = (0.0145352 0.0225561 6.41915e-15), Final residual = (2.63983e-26 4.02784e-26 6.68293e-26), No Iterations 109
maxResidual = 0.0225561

ExecutionTime = 7.12 s  ClockTime = 7 s

Time = 67

         Steady solver/PNP-NS Iteration      # 1
BiCGStab:  Solving for PNP, Initial residual = (0.0431579 0.0650323 1.67733e-14), Final residual = (1.53726e-26 2.34645e-26 3.88604e-26), No Iterations 108
maxResidual = 0.0650323

ExecutionTime = 7.22 s  ClockTime = 7 s

Time = 68

         Steady solver/PNP-NS Iteration      # 1
BiCGStab:  Solving for PNP, Initial residual = (0.0143479 0.0222665 6.20785e-15), Final residual = (2.81261e-26 4.29161e-26 7.09297e-26), No Iterations 116
maxResidual = 0.0222665

ExecutionTime = 7.33 s  ClockTime = 8 s

Time = 69

         Steady solver/PNP-NS Iteration      # 1
BiCGStab:  Solving for PNP, Initial residual = (0.0417623 0.0628968 1.68763e-14), Final residual = (1.05249e-26 1.60659e-26 2.66102e-26), No Iterations 107
maxResidual = 0.0628968

ExecutionTime = 7.44 s  ClockTime = 8 s

Time = 70

         Steady solver/PNP-NS Iteration      # 1
BiCGStab:  Solving for PNP, Initial residual = (0.0141623 0.0219795 6.38856e-15), Final residual = (1.5395e-26 2.3497e-26 3.8952e-26), No Iterations 114
maxResidual = 0.0219795

ExecutionTime = 7.56 s  ClockTime = 8 s

Time = 71

         Steady solver/PNP-NS Iteration      # 1
BiCGStab:  Solving for PNP, Initial residual = (0.0404294 0.0608583 1.65363e-14), Final residual = (8.86899e-27 1.35381e-26 2.24076e-26), No Iterations 108
maxResidual = 0.0608583

ExecutionTime = 7.66 s  ClockTime = 8 s

Time = 72

         Steady solver/PNP-NS Iteration      # 1
BiCGStab:  Solving for PNP, Initial residual = (0.0139785 0.0216952 6.69588e-15), Final residual = (1.61539e-26 2.46546e-26 4.09764e-26), No Iterations 110
maxResidual = 0.0216952

ExecutionTime = 7.77 s  ClockTime = 8 s

Time = 73

         Steady solver/PNP-NS Iteration      # 1
BiCGStab:  Solving for PNP, Initial residual = (0.0391554 0.0589109 1.63127e-14), Final residual = (1.54764e-26 2.36232e-26 3.90759e-26), No Iterations 115
maxResidual = 0.0589109

ExecutionTime = 7.88 s  ClockTime = 8 s

Time = 74

         Steady solver/PNP-NS Iteration      # 1
BiCGStab:  Solving for PNP, Initial residual = (0.0137964 0.0214137 6.49128e-15), Final residual = (3.13658e-26 4.79959e-26 7.94232e-26), No Iterations 108
maxResidual = 0.0214137

ExecutionTime = 7.98 s  ClockTime = 8 s

Time = 75

         Steady solver/PNP-NS Iteration      # 1
BiCGStab:  Solving for PNP, Initial residual = (0.037937 0.0570492 1.6495e-14), Final residual = (2.66758e-26 4.07064e-26 6.73361e-26), No Iterations 107
maxResidual = 0.0570492

ExecutionTime = 8.09 s  ClockTime = 8 s

Time = 76

         Steady solver/PNP-NS Iteration      # 1
BiCGStab:  Solving for PNP, Initial residual = (0.0136161 0.0211349 6.70548e-15), Final residual = (2.40429e-26 3.67012e-26 6.0835e-26), No Iterations 114
maxResidual = 0.0211349

ExecutionTime = 8.2 s  ClockTime = 8 s

Time = 77

         Steady solver/PNP-NS Iteration      # 1
BiCGStab:  Solving for PNP, Initial residual = (0.0367707 0.0552682 1.70123e-14), Final residual = (2.67027e-26 4.07592e-26 6.74896e-26), No Iterations 114
maxResidual = 0.0552682

ExecutionTime = 8.31 s  ClockTime = 9 s

Time = 78

         Steady solver/PNP-NS Iteration      # 1
BiCGStab:  Solving for PNP, Initial residual = (0.0134376 0.0208588 6.6791e-15), Final residual = (2.312e-26 3.52644e-26 5.84487e-26), No Iterations 109
maxResidual = 0.0208588

ExecutionTime = 8.41 s  ClockTime = 9 s

Time = 79

         Steady solver/PNP-NS Iteration      # 1
BiCGStab:  Solving for PNP, Initial residual = (0.0356538 0.0535632 1.69159e-14), Final residual = (1.85031e-26 2.82386e-26 4.67327e-26), No Iterations 108
maxResidual = 0.0535632

ExecutionTime = 8.52 s  ClockTime = 9 s

Time = 80

         Steady solver/PNP-NS Iteration      # 1
BiCGStab:  Solving for PNP, Initial residual = (0.0132608 0.0205854 6.80697e-15), Final residual = (3.05468e-27 4.66676e-27 7.72621e-27), No Iterations 118
maxResidual = 0.0205854

ExecutionTime = 8.64 s  ClockTime = 9 s

Time = 81

         Steady solver/PNP-NS Iteration      # 1
BiCGStab:  Solving for PNP, Initial residual = (0.0345833 0.05193 1.6522e-14), Final residual = (2.77076e-26 4.22935e-26 6.99911e-26), No Iterations 110
maxResidual = 0.05193

ExecutionTime = 8.76 s  ClockTime = 9 s

Time = 82

         Steady solver/PNP-NS Iteration      # 1
BiCGStab:  Solving for PNP, Initial residual = (0.0130858 0.0203147 6.88253e-15), Final residual = (2.53729e-26 3.87254e-26 6.44237e-26), No Iterations 113
maxResidual = 0.0203147

ExecutionTime = 8.87 s  ClockTime = 9 s

Time = 83

         Steady solver/PNP-NS Iteration      # 1
BiCGStab:  Solving for PNP, Initial residual = (0.0335568 0.0503645 1.60934e-14), Final residual = (7.29903e-27 1.11417e-26 1.84376e-26), No Iterations 120
maxResidual = 0.0503645

ExecutionTime = 8.98 s  ClockTime = 9 s

Time = 84

         Steady solver/PNP-NS Iteration      # 1
BiCGStab:  Solving for PNP, Initial residual = (0.0129126 0.0200468 6.91828e-15), Final residual = (2.30035e-26 3.5114e-26 5.80247e-26), No Iterations 113
maxResidual = 0.0200468

ExecutionTime = 9.09 s  ClockTime = 9 s

Time = 85

         Steady solver/PNP-NS Iteration      # 1
BiCGStab:  Solving for PNP, Initial residual = (0.0325717 0.048863 1.59937e-14), Final residual = (4.06779e-27 6.2088e-27 1.02699e-26), No Iterations 121
maxResidual = 0.048863

ExecutionTime = 9.21 s  ClockTime = 9 s

Time = 86

         Steady solver/PNP-NS Iteration      # 1
BiCGStab:  Solving for PNP, Initial residual = (0.0127411 0.0197816 6.94879e-15), Final residual = (1.34529e-26 2.05334e-26 3.40477e-26), No Iterations 110
maxResidual = 0.0197816

ExecutionTime = 9.31 s  ClockTime = 10 s

Time = 87

         Steady solver/PNP-NS Iteration      # 1
BiCGStab:  Solving for PNP, Initial residual = (0.031626 0.0474221 1.65303e-14), Final residual = (1.19708e-26 1.84532e-26 3.05271e-26), No Iterations 118
maxResidual = 0.0474221

ExecutionTime = 9.44 s  ClockTime = 10 s

Time = 88

         Steady solver/PNP-NS Iteration      # 1
BiCGStab:  Solving for PNP, Initial residual = (0.0125713 0.019519 7.06793e-15), Final residual = (2.91794e-26 4.45338e-26 7.36684e-26), No Iterations 116
maxResidual = 0.019519

ExecutionTime = 9.55 s  ClockTime = 10 s

Time = 89

         Steady solver/PNP-NS Iteration      # 1
BiCGStab:  Solving for PNP, Initial residual = (0.0307174 0.0460385 1.54019e-14), Final residual = (1.43432e-26 2.18934e-26 3.62613e-26), No Iterations 116
maxResidual = 0.0460385

ExecutionTime = 9.67 s  ClockTime = 10 s

Time = 90

         Steady solver/PNP-NS Iteration      # 1
BiCGStab:  Solving for PNP, Initial residual = (0.0124034 0.0192594 6.85726e-15), Final residual = (2.06089e-26 3.14618e-26 5.21878e-26), No Iterations 114
maxResidual = 0.0192594

ExecutionTime = 9.78 s  ClockTime = 10 s

Time = 91

         Steady solver/PNP-NS Iteration      # 1
BiCGStab:  Solving for PNP, Initial residual = (0.0298445 0.0447093 1.55228e-14), Final residual = (2.46144e-26 3.74849e-26 6.21948e-26), No Iterations 110
maxResidual = 0.0447093

ExecutionTime = 9.89 s  ClockTime = 10 s

Time = 92

         Steady solver/PNP-NS Iteration      # 1
BiCGStab:  Solving for PNP, Initial residual = (0.0122371 0.0190027 6.97153e-15), Final residual = (1.55516e-26 2.37334e-26 3.94981e-26), No Iterations 120
maxResidual = 0.0190027

ExecutionTime = 10.01 s  ClockTime = 10 s

Time = 93

         Steady solver/PNP-NS Iteration      # 1
BiCGStab:  Solving for PNP, Initial residual = (0.0290053 0.0434322 1.5401e-14), Final residual = (2.35231e-26 3.59053e-26 5.93825e-26), No Iterations 118
maxResidual = 0.0434322

ExecutionTime = 10.12 s  ClockTime = 10 s

Time = 94

         Steady solver/PNP-NS Iteration      # 1
BiCGStab:  Solving for PNP, Initial residual = (0.0120729 0.0187487 7.33995e-15), Final residual = (2.20911e-26 3.36694e-26 5.73889e-26), No Iterations 118
maxResidual = 0.0187487

ExecutionTime = 10.23 s  ClockTime = 11 s

Time = 95

         Steady solver/PNP-NS Iteration      # 1
BiCGStab:  Solving for PNP, Initial residual = (0.0281978 0.0422043 1.52612e-14), Final residual = (2.74425e-26 4.18735e-26 6.95933e-26), No Iterations 111
maxResidual = 0.0422043

ExecutionTime = 10.34 s  ClockTime = 11 s

Time = 96

         Steady solver/PNP-NS Iteration      # 1
BiCGStab:  Solving for PNP, Initial residual = (0.0119105 0.0184975 7.01822e-15), Final residual = (1.6363e-26 2.49899e-26 4.14891e-26), No Iterations 111
maxResidual = 0.0184975

ExecutionTime = 10.45 s  ClockTime = 11 s

Time = 97

         Steady solver/PNP-NS Iteration      # 1
BiCGStab:  Solving for PNP, Initial residual = (0.0274206 0.0410229 1.54407e-14), Final residual = (2.79415e-26 4.2646e-26 7.08401e-26), No Iterations 113
maxResidual = 0.0410229

ExecutionTime = 10.57 s  ClockTime = 11 s

Time = 98

         Steady solver/PNP-NS Iteration      # 1
BiCGStab:  Solving for PNP, Initial residual = (0.0117498 0.018249 7.22099e-15), Final residual = (2.91292e-26 4.43494e-26 7.38347e-26), No Iterations 112
maxResidual = 0.018249

ExecutionTime = 10.67 s  ClockTime = 11 s

Time = 99

         Steady solver/PNP-NS Iteration      # 1
BiCGStab:  Solving for PNP, Initial residual = (0.026672 0.0398856 1.5501e-14), Final residual = (2.21399e-26 3.37952e-26 5.6063e-26), No Iterations 111
maxResidual = 0.0398856

ExecutionTime = 10.78 s  ClockTime = 11 s

Time = 100

         Steady solver/PNP-NS Iteration      # 1
BiCGStab:  Solving for PNP, Initial residual = (0.0115909 0.0180031 7.08384e-15), Final residual = (1.90959e-26 2.9145e-26 4.82583e-26), No Iterations 112
maxResidual = 0.0180031

ExecutionTime = 10.89 s  ClockTime = 11 s

Time = 101

         Steady solver/PNP-NS Iteration      # 1
BiCGStab:  Solving for PNP, Initial residual = (0.0259507 0.0387903 1.47665e-14), Final residual = (2.01703e-26 3.07861e-26 5.09275e-26), No Iterations 115
maxResidual = 0.0387903

ExecutionTime = 11.01 s  ClockTime = 11 s

Time = 102

         Steady solver/PNP-NS Iteration      # 1
BiCGStab:  Solving for PNP, Initial residual = (0.0114338 0.01776 7.28339e-15), Final residual = (1.50593e-26 2.29842e-26 3.81312e-26), No Iterations 111
maxResidual = 0.01776

ExecutionTime = 11.11 s  ClockTime = 11 s

Time = 103

         Steady solver/PNP-NS Iteration      # 1
BiCGStab:  Solving for PNP, Initial residual = (0.0252555 0.037735 1.46343e-14), Final residual = (1.73005e-26 2.63706e-26 4.39694e-26), No Iterations 116
maxResidual = 0.037735

ExecutionTime = 11.23 s  ClockTime = 12 s

Time = 104

         Steady solver/PNP-NS Iteration      # 1
BiCGStab:  Solving for PNP, Initial residual = (0.0112784 0.0175196 7.30265e-15), Final residual = (6.83496e-27 1.04878e-26 1.7378e-26), No Iterations 119
maxResidual = 0.0175196

ExecutionTime = 11.34 s  ClockTime = 12 s

Time = 105

         Steady solver/PNP-NS Iteration      # 1
BiCGStab:  Solving for PNP, Initial residual = (0.024585 0.0367177 1.49625e-14), Final residual = (2.20753e-26 3.36945e-26 5.58681e-26), No Iterations 111
maxResidual = 0.0367177

ExecutionTime = 11.45 s  ClockTime = 12 s

Time = 106

         Steady solver/PNP-NS Iteration      # 1
BiCGStab:  Solving for PNP, Initial residual = (0.0111247 0.0172818 7.10409e-15), Final residual = (2.91908e-26 4.46528e-26 7.62066e-26), No Iterations 113
maxResidual = 0.0172818

ExecutionTime = 11.56 s  ClockTime = 12 s

Time = 107

         Steady solver/PNP-NS Iteration      # 1
BiCGStab:  Solving for PNP, Initial residual = (0.0239381 0.0357367 1.51726e-14), Final residual = (1.22492e-26 1.87011e-26 3.0982e-26), No Iterations 115
maxResidual = 0.0357367

ExecutionTime = 11.68 s  ClockTime = 12 s

Time = 108

         Steady solver/PNP-NS Iteration      # 1
BiCGStab:  Solving for PNP, Initial residual = (0.0109728 0.0170467 7.20204e-15), Final residual = (1.66097e-26 2.53495e-26 4.20877e-26), No Iterations 116
maxResidual = 0.0170467

ExecutionTime = 11.79 s  ClockTime = 12 s

Time = 109

         Steady solver/PNP-NS Iteration      # 1
BiCGStab:  Solving for PNP, Initial residual = (0.0233137 0.0347902 1.42775e-14), Final residual = (1.2454e-26 1.90092e-26 3.1494e-26), No Iterations 116
maxResidual = 0.0347902

ExecutionTime = 11.91 s  ClockTime = 12 s

Time = 110

         Steady solver/PNP-NS Iteration      # 1
BiCGStab:  Solving for PNP, Initial residual = (0.0108226 0.0168143 7.08792e-15), Final residual = (1.98085e-26 3.02119e-26 5.01244e-26), No Iterations 112
maxResidual = 0.0168143

ExecutionTime = 12.03 s  ClockTime = 12 s

Time = 111

         Steady solver/PNP-NS Iteration      # 1
BiCGStab:  Solving for PNP, Initial residual = (0.0227109 0.0338768 1.41875e-14), Final residual = (2.08594e-26 3.18518e-26 5.30776e-26), No Iterations 110
maxResidual = 0.0338768

ExecutionTime = 12.15 s  ClockTime = 13 s

Time = 112

         Steady solver/PNP-NS Iteration      # 1
BiCGStab:  Solving for PNP, Initial residual = (0.0106741 0.0165846 7.1973e-15), Final residual = (1.89875e-26 2.89952e-26 4.80097e-26), No Iterations 111
maxResidual = 0.0165846

ExecutionTime = 12.27 s  ClockTime = 13 s

Time = 113

         Steady solver/PNP-NS Iteration      # 1
BiCGStab:  Solving for PNP, Initial residual = (0.0221285 0.0329948 1.41963e-14), Final residual = (2.77738e-26 4.23994e-26 7.03258e-26), No Iterations 111
maxResidual = 0.0329948

ExecutionTime = 12.38 s  ClockTime = 13 s

Time = 114

         Steady solver/PNP-NS Iteration      # 1
BiCGStab:  Solving for PNP, Initial residual = (0.0105273 0.0163575 7.29834e-15), Final residual = (2.40102e-26 3.66538e-26 6.06306e-26), No Iterations 112
maxResidual = 0.0163575

ExecutionTime = 12.51 s  ClockTime = 13 s

Time = 115

         Steady solver/PNP-NS Iteration      # 1
BiCGStab:  Solving for PNP, Initial residual = (0.0215658 0.032143 1.36064e-14), Final residual = (1.65405e-26 2.52144e-26 4.18741e-26), No Iterations 108
maxResidual = 0.032143

ExecutionTime = 12.62 s  ClockTime = 13 s

Time = 116

         Steady solver/PNP-NS Iteration      # 1
BiCGStab:  Solving for PNP, Initial residual = (0.0103823 0.016133 7.44367e-15), Final residual = (2.85805e-26 4.36172e-26 7.22103e-26), No Iterations 111
maxResidual = 0.016133

ExecutionTime = 12.73 s  ClockTime = 13 s

Time = 117

         Steady solver/PNP-NS Iteration      # 1
BiCGStab:  Solving for PNP, Initial residual = (0.0210222 0.0313199 1.40377e-14), Final residual = (1.35919e-26 2.07439e-26 3.43526e-26), No Iterations 109
maxResidual = 0.0313199

ExecutionTime = 12.84 s  ClockTime = 13 s

Time = 118

         Steady solver/PNP-NS Iteration      # 1
BiCGStab:  Solving for PNP, Initial residual = (0.010239 0.0159112 7.29038e-15), Final residual = (2.49233e-26 3.80373e-26 6.29586e-26), No Iterations 108
maxResidual = 0.0159112

ExecutionTime = 12.94 s  ClockTime = 13 s

Time = 119

         Steady solver/PNP-NS Iteration      # 1
BiCGStab:  Solving for PNP, Initial residual = (0.0204969 0.0305243 1.32457e-14), Final residual = (2.91517e-26 4.44945e-26 7.4085e-26), No Iterations 109
maxResidual = 0.0305243

ExecutionTime = 13.04 s  ClockTime = 13 s

Time = 120

         Steady solver/PNP-NS Iteration      # 1
BiCGStab:  Solving for PNP, Initial residual = (0.0100973 0.015692 7.10674e-15), Final residual = (5.31889e-27 8.08722e-27 1.6457e-26), No Iterations 115
maxResidual = 0.015692

ExecutionTime = 13.17 s  ClockTime = 14 s

Time = 121

         Steady solver/PNP-NS Iteration      # 1
BiCGStab:  Solving for PNP, Initial residual = (0.0199888 0.029755 1.34636e-14), Final residual = (2.26925e-26 3.46363e-26 5.73981e-26), No Iterations 114
maxResidual = 0.029755

ExecutionTime = 13.28 s  ClockTime = 14 s

Time = 122

         Steady solver/PNP-NS Iteration      # 1
BiCGStab:  Solving for PNP, Initial residual = (0.00995733 0.0154753 7.33527e-15), Final residual = (1.00549e-26 1.53205e-26 2.54676e-26), No Iterations 114
maxResidual = 0.0154753

ExecutionTime = 13.39 s  ClockTime = 14 s

Time = 123

         Steady solver/PNP-NS Iteration      # 1
BiCGStab:  Solving for PNP, Initial residual = (0.019497 0.0290109 1.33114e-14), Final residual = (1.62136e-26 2.47637e-26 4.5743e-26), No Iterations 115
maxResidual = 0.0290109

ExecutionTime = 13.5 s  ClockTime = 14 s

Time = 124

         Steady solver/PNP-NS Iteration      # 1
BiCGStab:  Solving for PNP, Initial residual = (0.00981904 0.0152613 7.17848e-15), Final residual = (3.01986e-26 4.60218e-26 7.63091e-26), No Iterations 113
maxResidual = 0.0152613

ExecutionTime = 13.61 s  ClockTime = 14 s

Time = 125

         Steady solver/PNP-NS Iteration      # 1
BiCGStab:  Solving for PNP, Initial residual = (0.0190209 0.0282909 1.32311e-14), Final residual = (2.63117e-26 4.01632e-26 6.64735e-26), No Iterations 115
maxResidual = 0.0282909

ExecutionTime = 13.73 s  ClockTime = 14 s

Time = 126

         Steady solver/PNP-NS Iteration      # 1
BiCGStab:  Solving for PNP, Initial residual = (0.0096824 0.0150498 7.22053e-15), Final residual = (2.85258e-26 4.35063e-26 7.22311e-26), No Iterations 108
maxResidual = 0.0150498

ExecutionTime = 13.83 s  ClockTime = 14 s

Time = 127

         Steady solver/PNP-NS Iteration      # 1
BiCGStab:  Solving for PNP, Initial residual = (0.0185598 0.027594 1.30787e-14), Final residual = (3.19846e-27 4.88186e-27 8.10538e-27), No Iterations 109
maxResidual = 0.027594

ExecutionTime = 13.94 s  ClockTime = 14 s

Time = 128

         Steady solver/PNP-NS Iteration      # 1
BiCGStab:  Solving for PNP, Initial residual = (0.00954742 0.0148408 7.03691e-15), Final residual = (1.85386e-26 2.83651e-26 4.6984e-26), No Iterations 110
maxResidual = 0.0148408

ExecutionTime = 14.05 s  ClockTime = 14 s

Time = 129

         Steady solver/PNP-NS Iteration      # 1
BiCGStab:  Solving for PNP, Initial residual = (0.0181132 0.0269192 1.30992e-14), Final residual = (2.19735e-26 3.35419e-26 5.55745e-26), No Iterations 115
maxResidual = 0.0269192

ExecutionTime = 14.15 s  ClockTime = 15 s

Time = 130

         Steady solver/PNP-NS Iteration      # 1
BiCGStab:  Solving for PNP, Initial residual = (0.00941408 0.0146344 7.29373e-15), Final residual = (2.70873e-26 4.15463e-26 7.00952e-26), No Iterations 112
maxResidual = 0.0146344

ExecutionTime = 14.28 s  ClockTime = 15 s

Time = 131

         Steady solver/PNP-NS Iteration      # 1
BiCGStab:  Solving for PNP, Initial residual = (0.0176805 0.0262657 1.27203e-14), Final residual = (1.5633e-26 2.3863e-26 3.96341e-26), No Iterations 117
maxResidual = 0.0262657

ExecutionTime = 14.39 s  ClockTime = 15 s

Time = 132

         Steady solver/PNP-NS Iteration      # 1
BiCGStab:  Solving for PNP, Initial residual = (0.00928237 0.0144305 7.41451e-15), Final residual = (2.5173e-26 3.8504e-26 6.40051e-26), No Iterations 111
maxResidual = 0.0144305

ExecutionTime = 14.5 s  ClockTime = 15 s

Time = 133

         Steady solver/PNP-NS Iteration      # 1
BiCGStab:  Solving for PNP, Initial residual = (0.017261 0.0256326 1.30098e-14), Final residual = (9.04091e-27 1.37988e-26 2.2928e-26), No Iterations 116
maxResidual = 0.0256326

ExecutionTime = 14.62 s  ClockTime = 15 s

Time = 134

         Steady solver/PNP-NS Iteration      # 1
BiCGStab:  Solving for PNP, Initial residual = (0.00915229 0.0142291 7.22532e-15), Final residual = (6.26798e-27 9.5733e-27 1.58399e-26), No Iterations 117
maxResidual = 0.0142291

ExecutionTime = 14.73 s  ClockTime = 15 s

Time = 135

         Steady solver/PNP-NS Iteration      # 1
BiCGStab:  Solving for PNP, Initial residual = (0.0168543 0.025019 1.33655e-14), Final residual = (3.09003e-26 4.71808e-26 7.83126e-26), No Iterations 110
maxResidual = 0.025019

ExecutionTime = 14.83 s  ClockTime = 15 s

Time = 136

         Steady solver/PNP-NS Iteration      # 1
BiCGStab:  Solving for PNP, Initial residual = (0.00902382 0.0140302 7.35061e-15), Final residual = (2.89234e-26 4.41371e-26 7.39974e-26), No Iterations 109
maxResidual = 0.0140302

ExecutionTime = 14.94 s  ClockTime = 15 s

Time = 137

         Steady solver/PNP-NS Iteration      # 1
BiCGStab:  Solving for PNP, Initial residual = (0.0164599 0.0244242 1.26098e-14), Final residual = (2.78842e-26 4.25616e-26 7.04756e-26), No Iterations 113
maxResidual = 0.0244242

ExecutionTime = 15.05 s  ClockTime = 15 s

Time = 138

         Steady solver/PNP-NS Iteration      # 1
BiCGStab:  Solving for PNP, Initial residual = (0.00889695 0.0138337 7.17376e-15), Final residual = (3.04291e-26 4.64008e-26 7.85064e-26), No Iterations 111
maxResidual = 0.0138337

ExecutionTime = 15.16 s  ClockTime = 16 s

Time = 139

         Steady solver/PNP-NS Iteration      # 1
BiCGStab:  Solving for PNP, Initial residual = (0.0160773 0.0238475 1.25758e-14), Final residual = (1.93133e-26 2.94686e-26 4.9152e-26), No Iterations 110
maxResidual = 0.0238475

ExecutionTime = 15.26 s  ClockTime = 16 s

Time = 140

         Steady solver/PNP-NS Iteration      # 1
BiCGStab:  Solving for PNP, Initial residual = (0.00877167 0.0136397 7.30151e-15), Final residual = (1.03074e-27 1.5731e-27 2.62061e-27), No Iterations 112
maxResidual = 0.0136397

ExecutionTime = 15.39 s  ClockTime = 16 s

Time = 141

         Steady solver/PNP-NS Iteration      # 1
BiCGStab:  Solving for PNP, Initial residual = (0.015706 0.0232881 1.22775e-14), Final residual = (2.66491e-26 4.06758e-26 6.76151e-26), No Iterations 110
maxResidual = 0.0232881

ExecutionTime = 15.5 s  ClockTime = 16 s

Time = 142

         Steady solver/PNP-NS Iteration      # 1
BiCGStab:  Solving for PNP, Initial residual = (0.00864796 0.0134482 7.69962e-15), Final residual = (1.51312e-26 2.3089e-26 3.87581e-26), No Iterations 108
maxResidual = 0.0134482

ExecutionTime = 15.61 s  ClockTime = 16 s

Time = 143

         Steady solver/PNP-NS Iteration      # 1
BiCGStab:  Solving for PNP, Initial residual = (0.0153457 0.0227454 1.21853e-14), Final residual = (2.12424e-26 3.24234e-26 5.38555e-26), No Iterations 119
maxResidual = 0.0227454

ExecutionTime = 15.72 s  ClockTime = 16 s

Time = 144

         Steady solver/PNP-NS Iteration      # 1
BiCGStab:  Solving for PNP, Initial residual = (0.00852582 0.013259 7.2622e-15), Final residual = (2.87103e-26 4.38268e-26 7.32914e-26), No Iterations 112
maxResidual = 0.013259

ExecutionTime = 15.83 s  ClockTime = 16 s

Time = 145

         Steady solver/PNP-NS Iteration      # 1
BiCGStab:  Solving for PNP, Initial residual = (0.0149958 0.0222188 1.20002e-14), Final residual = (2.35914e-26 3.60077e-26 5.99037e-26), No Iterations 119
maxResidual = 0.0222188

ExecutionTime = 15.95 s  ClockTime = 16 s

Time = 146

         Steady solver/PNP-NS Iteration      # 1
BiCGStab:  Solving for PNP, Initial residual = (0.00840524 0.0130722 7.31703e-15), Final residual = (3.01564e-26 4.60279e-26 7.64427e-26), No Iterations 114
maxResidual = 0.0130722

ExecutionTime = 16.06 s  ClockTime = 17 s

Time = 147

         Steady solver/PNP-NS Iteration      # 1
BiCGStab:  Solving for PNP, Initial residual = (0.014656 0.0217076 1.22352e-14), Final residual = (3.79191e-27 5.78026e-27 9.65989e-27), No Iterations 114
maxResidual = 0.0217076

ExecutionTime = 16.17 s  ClockTime = 17 s

Time = 148

         Steady solver/PNP-NS Iteration      # 1
BiCGStab:  Solving for PNP, Initial residual = (0.00828619 0.0128879 7.1175e-15), Final residual = (2.83395e-26 4.32512e-26 7.18708e-26), No Iterations 113
maxResidual = 0.0128879

ExecutionTime = 16.28 s  ClockTime = 17 s

Time = 149

         Steady solver/PNP-NS Iteration      # 1
BiCGStab:  Solving for PNP, Initial residual = (0.014326 0.0212113 1.14808e-14), Final residual = (2.69188e-26 4.09521e-26 8.05659e-26), No Iterations 115
maxResidual = 0.0212113

ExecutionTime = 16.39 s  ClockTime = 17 s

Time = 150

         Steady solver/PNP-NS Iteration      # 1
BiCGStab:  Solving for PNP, Initial residual = (0.00816867 0.0127058 7.16544e-15), Final residual = (4.54976e-27 6.90712e-27 1.15128e-26), No Iterations 117
maxResidual = 0.0127058

ExecutionTime = 16.51 s  ClockTime = 17 s

Time = 151

         Steady solver/PNP-NS Iteration      # 1
BiCGStab:  Solving for PNP, Initial residual = (0.0140053 0.0207292 1.17039e-14), Final residual = (2.8755e-26 4.39843e-26 7.29919e-26), No Iterations 114
maxResidual = 0.0207292

ExecutionTime = 16.63 s  ClockTime = 17 s

Time = 152

         Steady solver/PNP-NS Iteration      # 1
BiCGStab:  Solving for PNP, Initial residual = (0.00805266 0.0125261 7.44506e-15), Final residual = (2.33286e-26 3.57521e-26 5.95658e-26), No Iterations 110
maxResidual = 0.0125261

ExecutionTime = 16.73 s  ClockTime = 17 s

Time = 153

         Steady solver/PNP-NS Iteration      # 1
BiCGStab:  Solving for PNP, Initial residual = (0.0136937 0.020261 1.13858e-14), Final residual = (1.89417e-26 2.90268e-26 4.80831e-26), No Iterations 119
maxResidual = 0.020261

ExecutionTime = 16.85 s  ClockTime = 17 s

Time = 154

         Steady solver/PNP-NS Iteration      # 1
BiCGStab:  Solving for PNP, Initial residual = (0.00793815 0.0123487 7.48155e-15), Final residual = (3.0063e-26 4.58836e-26 7.64603e-26), No Iterations 109
maxResidual = 0.0123487

ExecutionTime = 16.95 s  ClockTime = 17 s

Time = 155

         Steady solver/PNP-NS Iteration      # 1
BiCGStab:  Solving for PNP, Initial residual = (0.0133908 0.0198061 1.14335e-14), Final residual = (2.53632e-26 3.87256e-26 6.46022e-26), No Iterations 115
maxResidual = 0.0198061

ExecutionTime = 17.07 s  ClockTime = 18 s

Time = 156

         Steady solver/PNP-NS Iteration      # 1
BiCGStab:  Solving for PNP, Initial residual = (0.00782513 0.0121736 7.33277e-15), Final residual = (2.96915e-26 4.53156e-26 7.5225e-26), No Iterations 110
maxResidual = 0.0121736

ExecutionTime = 17.18 s  ClockTime = 18 s

Time = 157

         Steady solver/PNP-NS Iteration      # 1
BiCGStab:  Solving for PNP, Initial residual = (0.0130962 0.0193639 1.13188e-14), Final residual = (9.16898e-27 1.39968e-26 2.31858e-26), No Iterations 118
maxResidual = 0.0193639

ExecutionTime = 17.29 s  ClockTime = 18 s

Time = 158

         Steady solver/PNP-NS Iteration      # 1
BiCGStab:  Solving for PNP, Initial residual = (0.00771358 0.0120007 7.11191e-15), Final residual = (1.60669e-26 2.45214e-26 4.07918e-26), No Iterations 111
maxResidual = 0.0120007

ExecutionTime = 17.4 s  ClockTime = 18 s

Time = 159

         Steady solver/PNP-NS Iteration      # 1
BiCGStab:  Solving for PNP, Initial residual = (0.0128098 0.0189341 1.15172e-14), Final residual = (3.09238e-26 4.72029e-26 7.86607e-26), No Iterations 115
maxResidual = 0.0189341

ExecutionTime = 17.52 s  ClockTime = 18 s

Time = 160

         Steady solver/PNP-NS Iteration      # 1
BiCGStab:  Solving for PNP, Initial residual = (0.00760349 0.0118301 7.26432e-15), Final residual = (1.13083e-26 1.7258e-26 2.8914e-26), No Iterations 110
maxResidual = 0.0118301

ExecutionTime = 17.63 s  ClockTime = 18 s

Time = 161

         Steady solver/PNP-NS Iteration      # 1
BiCGStab:  Solving for PNP, Initial residual = (0.0125312 0.0185162 1.11581e-14), Final residual = (1.19159e-26 1.81887e-26 3.03357e-26), No Iterations 108
maxResidual = 0.0185162

ExecutionTime = 17.74 s  ClockTime = 18 s

Time = 162

         Steady solver/PNP-NS Iteration      # 1
BiCGStab:  Solving for PNP, Initial residual = (0.00749484 0.0116618 7.25563e-15), Final residual = (3.11399e-26 4.75248e-26 7.87989e-26), No Iterations 115
maxResidual = 0.0116618

ExecutionTime = 17.85 s  ClockTime = 18 s

Time = 163

         Steady solver/PNP-NS Iteration      # 1
BiCGStab:  Solving for PNP, Initial residual = (0.0122601 0.0181098 1.13821e-14), Final residual = (1.88343e-26 2.87524e-26 4.76773e-26), No Iterations 109
maxResidual = 0.0181098

ExecutionTime = 17.95 s  ClockTime = 18 s

Time = 164

         Steady solver/PNP-NS Iteration      # 1
BiCGStab:  Solving for PNP, Initial residual = (0.00738762 0.0114956 7.27658e-15), Final residual = (2.47051e-26 3.76837e-26 6.30013e-26), No Iterations 113
maxResidual = 0.0114956

ExecutionTime = 18.06 s  ClockTime = 19 s

Time = 165

         Steady solver/PNP-NS Iteration      # 1
BiCGStab:  Solving for PNP, Initial residual = (0.0119962 0.0177144 1.10922e-14), Final residual = (2.00923e-26 3.06666e-26 5.11025e-26), No Iterations 107
maxResidual = 0.0177144

ExecutionTime = 18.16 s  ClockTime = 19 s

Time = 166

         Steady solver/PNP-NS Iteration      # 1
BiCGStab:  Solving for PNP, Initial residual = (0.00728182 0.0113316 7.11174e-15), Final residual = (2.60093e-26 4.05339e-26 6.73831e-26), No Iterations 112
maxResidual = 0.0113316

ExecutionTime = 18.27 s  ClockTime = 19 s

Time = 167

         Steady solver/PNP-NS Iteration      # 1
BiCGStab:  Solving for PNP, Initial residual = (0.0117394 0.0173298 1.1358e-14), Final residual = (4.60927e-27 7.03495e-27 1.17688e-26), No Iterations 110
maxResidual = 0.0173298

ExecutionTime = 18.39 s  ClockTime = 19 s

Time = 168

         Steady solver/PNP-NS Iteration      # 1
BiCGStab:  Solving for PNP, Initial residual = (0.00717742 0.0111698 7.23294e-15), Final residual = (2.99159e-26 4.56578e-26 7.57596e-26), No Iterations 112
maxResidual = 0.0111698

ExecutionTime = 18.49 s  ClockTime = 19 s

Time = 169

         Steady solver/PNP-NS Iteration      # 1
BiCGStab:  Solving for PNP, Initial residual = (0.0114894 0.0169555 1.15683e-14), Final residual = (1.98457e-26 3.02966e-26 5.05007e-26), No Iterations 108
maxResidual = 0.0169555

ExecutionTime = 18.6 s  ClockTime = 19 s

Time = 170

         Steady solver/PNP-NS Iteration      # 1
BiCGStab:  Solving for PNP, Initial residual = (0.0070744 0.0110101 7.12192e-15), Final residual = (2.92175e-26 4.45878e-26 7.41889e-26), No Iterations 111
maxResidual = 0.0110101

ExecutionTime = 18.72 s  ClockTime = 19 s

Time = 171

         Steady solver/PNP-NS Iteration      # 1
BiCGStab:  Solving for PNP, Initial residual = (0.011246 0.0165911 1.08721e-14), Final residual = (1.78058e-26 2.71754e-26 4.52995e-26), No Iterations 110
maxResidual = 0.0165911

ExecutionTime = 18.83 s  ClockTime = 19 s

Time = 172

         Steady solver/PNP-NS Iteration      # 1
BiCGStab:  Solving for PNP, Initial residual = (0.00697276 0.0108525 7.39204e-15), Final residual = (1.99622e-26 3.04609e-26 5.14674e-26), No Iterations 107
maxResidual = 0.0108525

ExecutionTime = 18.93 s  ClockTime = 19 s

Time = 173

         Steady solver/PNP-NS Iteration      # 1
BiCGStab:  Solving for PNP, Initial residual = (0.0110089 0.0162364 1.06046e-14), Final residual = (6.54703e-27 9.99646e-27 1.67079e-26), No Iterations 110
maxResidual = 0.0162364

ExecutionTime = 19.04 s  ClockTime = 20 s

Time = 174

         Steady solver/PNP-NS Iteration      # 1
BiCGStab:  Solving for PNP, Initial residual = (0.00687246 0.010697 7.12165e-15), Final residual = (1.29556e-26 1.97684e-26 3.30435e-26), No Iterations 112
maxResidual = 0.010697

ExecutionTime = 19.15 s  ClockTime = 20 s

Time = 175

         Steady solver/PNP-NS Iteration      # 1
BiCGStab:  Solving for PNP, Initial residual = (0.0107779 0.015891 1.06213e-14), Final residual = (7.49166e-27 1.15195e-26 1.95269e-26), No Iterations 115
maxResidual = 0.015891

ExecutionTime = 19.26 s  ClockTime = 20 s

Time = 176

         Steady solver/PNP-NS Iteration      # 1
BiCGStab:  Solving for PNP, Initial residual = (0.00677351 0.0105435 7.54814e-15), Final residual = (2.01671e-26 3.07771e-26 5.1718e-26), No Iterations 115
maxResidual = 0.0105435

ExecutionTime = 19.37 s  ClockTime = 20 s

Time = 177

         Steady solver/PNP-NS Iteration      # 1
BiCGStab:  Solving for PNP, Initial residual = (0.0105528 0.0155546 1.12441e-14), Final residual = (3.10342e-26 4.73646e-26 7.93682e-26), No Iterations 117
maxResidual = 0.0155546

ExecutionTime = 19.48 s  ClockTime = 20 s

Time = 178

         Steady solver/PNP-NS Iteration      # 1
BiCGStab:  Solving for PNP, Initial residual = (0.00667589 0.0103921 7.21911e-15), Final residual = (2.11055e-26 3.21909e-26 5.39043e-26), No Iterations 110
maxResidual = 0.0103921

ExecutionTime = 19.59 s  ClockTime = 20 s

Time = 179

         Steady solver/PNP-NS Iteration      # 1
BiCGStab:  Solving for PNP, Initial residual = (0.0103335 0.0152269 1.06902e-14), Final residual = (1.89387e-26 2.89047e-26 4.84965e-26), No Iterations 116
maxResidual = 0.0152269

ExecutionTime = 19.71 s  ClockTime = 20 s

Time = 180

         Steady solver/PNP-NS Iteration      # 1
BiCGStab:  Solving for PNP, Initial residual = (0.00657958 0.0102427 7.63986e-15), Final residual = (3.09275e-26 4.72028e-26 7.88304e-26), No Iterations 111
maxResidual = 0.0102427

ExecutionTime = 19.82 s  ClockTime = 20 s

Time = 181

         Steady solver/PNP-NS Iteration      # 1
BiCGStab:  Solving for PNP, Initial residual = (0.0101197 0.0149076 1.02764e-14), Final residual = (2.79771e-26 4.36871e-26 7.52845e-26), No Iterations 111
maxResidual = 0.0149076

ExecutionTime = 19.94 s  ClockTime = 21 s

Time = 182

         Steady solver/PNP-NS Iteration      # 1
BiCGStab:  Solving for PNP, Initial residual = (0.00648456 0.0100954 7.32368e-15), Final residual = (1.15034e-26 1.75557e-26 2.94762e-26), No Iterations 111
maxResidual = 0.0100954

ExecutionTime = 20.04 s  ClockTime = 21 s

Time = 183

         Steady solver/PNP-NS Iteration      # 1
BiCGStab:  Solving for PNP, Initial residual = (0.00991123 0.0145964 1.10672e-14), Final residual = (2.0064e-26 3.05684e-26 5.14639e-26), No Iterations 109
maxResidual = 0.0145964

ExecutionTime = 20.15 s  ClockTime = 21 s

Time = 184

         Steady solver/PNP-NS Iteration      # 1
BiCGStab:  Solving for PNP, Initial residual = (0.00639081 0.00994993 7.44102e-15), Final residual = (5.28339e-27 8.06368e-27 1.34962e-26), No Iterations 117
maxResidual = 0.00994993

ExecutionTime = 20.26 s  ClockTime = 21 s

Time = 185

         Steady solver/PNP-NS Iteration      # 1
BiCGStab:  Solving for PNP, Initial residual = (0.00970798 0.0142931 1.07103e-14), Final residual = (2.89339e-26 4.4165e-26 7.58282e-26), No Iterations 108
maxResidual = 0.0142931

ExecutionTime = 20.36 s  ClockTime = 21 s

Time = 186

         Steady solver/PNP-NS Iteration      # 1
BiCGStab:  Solving for PNP, Initial residual = (0.00629833 0.00980645 7.47899e-15), Final residual = (2.32086e-26 3.53996e-26 5.89655e-26), No Iterations 112
maxResidual = 0.00980645

ExecutionTime = 20.47 s  ClockTime = 21 s

Time = 187

         Steady solver/PNP-NS Iteration      # 1
BiCGStab:  Solving for PNP, Initial residual = (0.00950975 0.0139974 1.0588e-14), Final residual = (3.16954e-26 4.83635e-26 8.1148e-26), No Iterations 107
maxResidual = 0.0139974

ExecutionTime = 20.58 s  ClockTime = 21 s

Time = 188

         Steady solver/PNP-NS Iteration      # 1
BiCGStab:  Solving for PNP, Initial residual = (0.0062071 0.00966489 7.28204e-15), Final residual = (1.85375e-26 2.8287e-26 4.78213e-26), No Iterations 117
maxResidual = 0.00966489

ExecutionTime = 20.69 s  ClockTime = 21 s

Time = 189

         Steady solver/PNP-NS Iteration      # 1
BiCGStab:  Solving for PNP, Initial residual = (0.00931639 0.0137091 1.01815e-14), Final residual = (2.74585e-26 4.19039e-26 7.03609e-26), No Iterations 107
maxResidual = 0.0137091

ExecutionTime = 20.8 s  ClockTime = 21 s

Time = 190

         Steady solver/PNP-NS Iteration      # 1
BiCGStab:  Solving for PNP, Initial residual = (0.00611714 0.00952523 7.1054e-15), Final residual = (1.53801e-26 2.34704e-26 3.94811e-26), No Iterations 117
maxResidual = 0.00952523

ExecutionTime = 20.93 s  ClockTime = 22 s

Time = 191

         Steady solver/PNP-NS Iteration      # 1
BiCGStab:  Solving for PNP, Initial residual = (0.00912774 0.0134281 1.01753e-14), Final residual = (3.54292e-27 5.40858e-27 9.08582e-27), No Iterations 111
maxResidual = 0.0134281

ExecutionTime = 21.03 s  ClockTime = 22 s

Time = 192

         Steady solver/PNP-NS Iteration      # 1
BiCGStab:  Solving for PNP, Initial residual = (0.00602842 0.00938744 7.33019e-15), Final residual = (2.18253e-26 3.32785e-26 5.58791e-26), No Iterations 110
maxResidual = 0.00938744

ExecutionTime = 21.14 s  ClockTime = 22 s

Time = 193

         Steady solver/PNP-NS Iteration      # 1
BiCGStab:  Solving for PNP, Initial residual = (0.00894366 0.0131539 1.04917e-14), Final residual = (7.46834e-27 1.14003e-26 1.91534e-26), No Iterations 109
maxResidual = 0.0131539

ExecutionTime = 21.24 s  ClockTime = 22 s

Time = 194

         Steady solver/PNP-NS Iteration      # 1
BiCGStab:  Solving for PNP, Initial residual = (0.00594089 0.00925154 7.08431e-15), Final residual = (1.27805e-26 1.95391e-26 3.27349e-26), No Iterations 112
maxResidual = 0.00925154

ExecutionTime = 21.36 s  ClockTime = 22 s

Time = 195

         Steady solver/PNP-NS Iteration      # 1
BiCGStab:  Solving for PNP, Initial residual = (0.00876405 0.0128865 1.05844e-14), Final residual = (3.15471e-26 4.81459e-26 8.0324e-26), No Iterations 112
maxResidual = 0.0128865

ExecutionTime = 21.46 s  ClockTime = 22 s

Time = 196

         Steady solver/PNP-NS Iteration      # 1
BiCGStab:  Solving for PNP, Initial residual = (0.00585456 0.00911751 7.2366e-15), Final residual = (2.43328e-26 3.71203e-26 6.32162e-26), No Iterations 119
maxResidual = 0.00911751

ExecutionTime = 21.58 s  ClockTime = 22 s

Time = 197

         Steady solver/PNP-NS Iteration      # 1
BiCGStab:  Solving for PNP, Initial residual = (0.00858875 0.0126255 9.9241e-15), Final residual = (1.69166e-26 2.58118e-26 4.4217e-26), No Iterations 111
maxResidual = 0.0126255

ExecutionTime = 21.69 s  ClockTime = 22 s

Time = 198

         Steady solver/PNP-NS Iteration      # 1
BiCGStab:  Solving for PNP, Initial residual = (0.00576939 0.00898528 7.09815e-15), Final residual = (1.00954e-26 1.54069e-26 2.57097e-26), No Iterations 118
maxResidual = 0.00898528

ExecutionTime = 21.8 s  ClockTime = 22 s

Time = 199

         Steady solver/PNP-NS Iteration      # 1
BiCGStab:  Solving for PNP, Initial residual = (0.00841761 0.0123708 9.78251e-15), Final residual = (2.64613e-26 4.03878e-26 6.77388e-26), No Iterations 115
maxResidual = 0.0123708

ExecutionTime = 21.91 s  ClockTime = 23 s

Time = 200

         Steady solver/PNP-NS Iteration      # 1
BiCGStab:  Solving for PNP, Initial residual = (0.00568538 0.00885483 7.63632e-15), Final residual = (6.10425e-27 9.23197e-27 1.60515e-26), No Iterations 112
maxResidual = 0.00885483

ExecutionTime = 22.03 s  ClockTime = 23 s

Time = 201

         Steady solver/PNP-NS Iteration      # 1
BiCGStab:  Solving for PNP, Initial residual = (0.0082505 0.0121222 1.02871e-14), Final residual = (1.90904e-26 2.91371e-26 4.86296e-26), No Iterations 114
maxResidual = 0.0121222

ExecutionTime = 22.15 s  ClockTime = 23 s

Time = 202

         Steady solver/PNP-NS Iteration      # 1
BiCGStab:  Solving for PNP, Initial residual = (0.00560252 0.00872614 7.00367e-15), Final residual = (1.18397e-26 1.80655e-26 3.09243e-26), No Iterations 111
maxResidual = 0.00872614

ExecutionTime = 22.25 s  ClockTime = 23 s

Time = 203

         Steady solver/PNP-NS Iteration      # 1
BiCGStab:  Solving for PNP, Initial residual = (0.00808729 0.0118795 9.88383e-15), Final residual = (1.49501e-26 2.28143e-26 3.88943e-26), No Iterations 104
maxResidual = 0.0118795

ExecutionTime = 22.36 s  ClockTime = 23 s

Time = 204

         Steady solver/PNP-NS Iteration      # 1
BiCGStab:  Solving for PNP, Initial residual = (0.00552078 0.00859918 7.11643e-15), Final residual = (1.78829e-26 2.72921e-26 4.55659e-26), No Iterations 118
maxResidual = 0.00859918

ExecutionTime = 22.47 s  ClockTime = 23 s

Time = 205

         Steady solver/PNP-NS Iteration      # 1
BiCGStab:  Solving for PNP, Initial residual = (0.00792787 0.0116425 9.80123e-15), Final residual = (1.21218e-26 1.84971e-26 3.29145e-26), No Iterations 116
maxResidual = 0.0116425

ExecutionTime = 22.59 s  ClockTime = 23 s

Time = 206

         Steady solver/PNP-NS Iteration      # 1
BiCGStab:  Solving for PNP, Initial residual = (0.00544015 0.00847394 7.03756e-15), Final residual = (2.11936e-26 3.23441e-26 5.39935e-26), No Iterations 117
maxResidual = 0.00847394

ExecutionTime = 22.7 s  ClockTime = 23 s

Time = 207

         Steady solver/PNP-NS Iteration      # 1
BiCGStab:  Solving for PNP, Initial residual = (0.00777213 0.011411 9.83731e-15), Final residual = (2.79722e-26 4.26921e-26 7.11717e-26), No Iterations 114
maxResidual = 0.011411

ExecutionTime = 22.82 s  ClockTime = 23 s

Time = 208

         Steady solver/PNP-NS Iteration      # 1
BiCGStab:  Solving for PNP, Initial residual = (0.00536062 0.00835038 6.91105e-15), Final residual = (2.66567e-26 4.12362e-26 6.93542e-26), No Iterations 109
maxResidual = 0.00835038

ExecutionTime = 22.93 s  ClockTime = 24 s

Time = 209

         Steady solver/PNP-NS Iteration      # 1
BiCGStab:  Solving for PNP, Initial residual = (0.00761996 0.0111849 9.64961e-15), Final residual = (3.01505e-26 4.5966e-26 7.75511e-26), No Iterations 108
maxResidual = 0.0111849

ExecutionTime = 23.03 s  ClockTime = 24 s

Time = 210

         Steady solver/PNP-NS Iteration      # 1
BiCGStab:  Solving for PNP, Initial residual = (0.00528217 0.00822848 7.10683e-15), Final residual = (2.55305e-26 3.89861e-26 6.62574e-26), No Iterations 112
maxResidual = 0.00822848

ExecutionTime = 23.15 s  ClockTime = 24 s

Time = 211

         Steady solver/PNP-NS Iteration      # 1
BiCGStab:  Solving for PNP, Initial residual = (0.00747126 0.0109641 9.67558e-15), Final residual = (1.32047e-26 2.01503e-26 3.43579e-26), No Iterations 107
maxResidual = 0.0109641

ExecutionTime = 23.26 s  ClockTime = 24 s

Time = 212

         Steady solver/PNP-NS Iteration      # 1
BiCGStab:  Solving for PNP, Initial residual = (0.00520478 0.00810823 7.05321e-15), Final residual = (2.5877e-26 3.94732e-26 6.57518e-26), No Iterations 119
maxResidual = 0.00810823

ExecutionTime = 23.37 s  ClockTime = 24 s

Time = 213

         Steady solver/PNP-NS Iteration      # 1
BiCGStab:  Solving for PNP, Initial residual = (0.00732592 0.0107483 9.74854e-15), Final residual = (2.19738e-26 3.35323e-26 5.72524e-26), No Iterations 108
maxResidual = 0.0107483

ExecutionTime = 23.48 s  ClockTime = 24 s

Time = 214

         Steady solver/PNP-NS Iteration      # 1
BiCGStab:  Solving for PNP, Initial residual = (0.00512846 0.0079896 7.126e-15), Final residual = (3.09997e-26 4.72945e-26 8.22159e-26), No Iterations 115
maxResidual = 0.0079896

ExecutionTime = 23.6 s  ClockTime = 24 s

Time = 215

         Steady solver/PNP-NS Iteration      # 1
BiCGStab:  Solving for PNP, Initial residual = (0.00718385 0.0105375 9.66669e-15), Final residual = (5.67536e-27 8.77388e-27 1.5097e-26), No Iterations 108
maxResidual = 0.0105375

ExecutionTime = 23.71 s  ClockTime = 24 s

Time = 216

         Steady solver/PNP-NS Iteration      # 1
BiCGStab:  Solving for PNP, Initial residual = (0.00505317 0.00787257 7.20066e-15), Final residual = (1.63562e-26 2.49601e-26 4.16042e-26), No Iterations 120
maxResidual = 0.00787257

ExecutionTime = 23.82 s  ClockTime = 24 s

Time = 217

         Steady solver/PNP-NS Iteration      # 1
BiCGStab:  Solving for PNP, Initial residual = (0.00704495 0.0103314 9.54778e-15), Final residual = (2.50897e-26 3.82576e-26 6.68636e-26), No Iterations 110
maxResidual = 0.0103314

ExecutionTime = 23.93 s  ClockTime = 25 s

Time = 218

         Steady solver/PNP-NS Iteration      # 1
BiCGStab:  Solving for PNP, Initial residual = (0.0049789 0.00775711 7.22324e-15), Final residual = (1.76745e-26 2.69622e-26 4.69714e-26), No Iterations 112
maxResidual = 0.00775711

ExecutionTime = 24.04 s  ClockTime = 25 s

Time = 219

         Steady solver/PNP-NS Iteration      # 1
BiCGStab:  Solving for PNP, Initial residual = (0.00690913 0.0101299 9.82376e-15), Final residual = (2.1246e-26 3.24665e-26 5.47891e-26), No Iterations 115
maxResidual = 0.0101299

ExecutionTime = 24.14 s  ClockTime = 25 s

Time = 220

         Steady solver/PNP-NS Iteration      # 1
BiCGStab:  Solving for PNP, Initial residual = (0.00490565 0.0076432 7.15538e-15), Final residual = (2.34212e-26 3.57411e-26 6.05131e-26), No Iterations 111
maxResidual = 0.0076432

ExecutionTime = 24.26 s  ClockTime = 25 s

Time = 221

         Steady solver/PNP-NS Iteration      # 1
BiCGStab:  Solving for PNP, Initial residual = (0.00677631 0.00993297 9.28412e-15), Final residual = (1.63277e-26 2.49197e-26 4.15553e-26), No Iterations 108
maxResidual = 0.00993297

ExecutionTime = 24.37 s  ClockTime = 25 s

Time = 222

         Steady solver/PNP-NS Iteration      # 1
BiCGStab:  Solving for PNP, Initial residual = (0.00483339 0.00753083 7.12488e-15), Final residual = (2.51556e-26 3.83819e-26 6.50787e-26), No Iterations 109
maxResidual = 0.00753083

ExecutionTime = 24.48 s  ClockTime = 25 s

Time = 223

         Steady solver/PNP-NS Iteration      # 1
BiCGStab:  Solving for PNP, Initial residual = (0.0066464 0.00974039 9.34816e-15), Final residual = (1.66647e-26 2.54313e-26 4.26434e-26), No Iterations 109
maxResidual = 0.00974039

ExecutionTime = 24.59 s  ClockTime = 25 s

Time = 224

         Steady solver/PNP-NS Iteration      # 1
BiCGStab:  Solving for PNP, Initial residual = (0.00476211 0.00741997 7.07068e-15), Final residual = (1.98786e-26 3.03456e-26 5.16273e-26), No Iterations 109
maxResidual = 0.00741997

ExecutionTime = 24.69 s  ClockTime = 25 s

Time = 225

         Steady solver/PNP-NS Iteration      # 1
BiCGStab:  Solving for PNP, Initial residual = (0.00651932 0.00955207 9.72284e-15), Final residual = (7.69811e-27 1.17488e-26 1.96858e-26), No Iterations 109
maxResidual = 0.00955207

ExecutionTime = 24.8 s  ClockTime = 25 s

Time = 226

         Steady solver/PNP-NS Iteration      # 1
BiCGStab:  Solving for PNP, Initial residual = (0.0046918 0.0073106 7.06079e-15), Final residual = (2.00589e-26 3.05469e-26 5.22001e-26), No Iterations 119
maxResidual = 0.0073106

ExecutionTime = 24.91 s  ClockTime = 26 s

Time = 227

         Steady solver/PNP-NS Iteration      # 1
BiCGStab:  Solving for PNP, Initial residual = (0.00639499 0.00936788 9.16255e-15), Final residual = (9.74438e-27 1.48688e-26 2.54275e-26), No Iterations 115
maxResidual = 0.00936788

ExecutionTime = 25.02 s  ClockTime = 26 s

Time = 228

         Steady solver/PNP-NS Iteration      # 1
BiCGStab:  Solving for PNP, Initial residual = (0.00462245 0.00720271 7.12615e-15), Final residual = (8.00894e-27 1.22635e-26 2.09508e-26), No Iterations 118
maxResidual = 0.00720271

ExecutionTime = 25.14 s  ClockTime = 26 s

Time = 229

         Steady solver/PNP-NS Iteration      # 1
BiCGStab:  Solving for PNP, Initial residual = (0.00627335 0.0091877 9.22134e-15), Final residual = (2.77059e-26 4.22837e-26 7.09985e-26), No Iterations 114
maxResidual = 0.0091877

ExecutionTime = 25.25 s  ClockTime = 26 s

Time = 230

         Steady solver/PNP-NS Iteration      # 1
BiCGStab:  Solving for PNP, Initial residual = (0.00455404 0.00709627 6.97815e-15), Final residual = (9.622e-27 1.46851e-26 2.4555e-26), No Iterations 119
maxResidual = 0.00709627

ExecutionTime = 25.38 s  ClockTime = 26 s

Time = 231

         Steady solver/PNP-NS Iteration      # 1
BiCGStab:  Solving for PNP, Initial residual = (0.00615431 0.00901144 9.44011e-15), Final residual = (2.58825e-26 3.94912e-26 6.79926e-26), No Iterations 115
maxResidual = 0.00901144

ExecutionTime = 25.49 s  ClockTime = 26 s

Time = 232

         Steady solver/PNP-NS Iteration      # 1
BiCGStab:  Solving for PNP, Initial residual = (0.00448657 0.00699126 6.96686e-15), Final residual = (1.00541e-26 1.53397e-26 2.61138e-26), No Iterations 112
maxResidual = 0.00699126

ExecutionTime = 25.61 s  ClockTime = 26 s

Time = 233

         Steady solver/PNP-NS Iteration      # 1
BiCGStab:  Solving for PNP, Initial residual = (0.00603782 0.00883898 9.26433e-15), Final residual = (2.51345e-26 3.83333e-26 6.90213e-26), No Iterations 110
maxResidual = 0.00883898

ExecutionTime = 25.7 s  ClockTime = 26 s

Time = 234

         Steady solver/PNP-NS Iteration      # 1
BiCGStab:  Solving for PNP, Initial residual = (0.00442001 0.00688767 7.13504e-15), Final residual = (2.05342e-26 3.12721e-26 5.56184e-26), No Iterations 111
maxResidual = 0.00688767

ExecutionTime = 25.81 s  ClockTime = 27 s

Time = 235

         Steady solver/PNP-NS Iteration      # 1
BiCGStab:  Solving for PNP, Initial residual = (0.0059238 0.00867023 8.97218e-15), Final residual = (2.08676e-26 3.18473e-26 5.33806e-26), No Iterations 115
maxResidual = 0.00867023

ExecutionTime = 25.93 s  ClockTime = 27 s

Time = 236

         Steady solver/PNP-NS Iteration      # 1
BiCGStab:  Solving for PNP, Initial residual = (0.00435436 0.00678548 7.0315e-15), Final residual = (2.71575e-26 4.12345e-26 6.95337e-26), No Iterations 114
maxResidual = 0.00678548

ExecutionTime = 26.04 s  ClockTime = 27 s

Time = 237

         Steady solver/PNP-NS Iteration      # 1
BiCGStab:  Solving for PNP, Initial residual = (0.00581219 0.00850508 9.5223e-15), Final residual = (2.03784e-26 3.1091e-26 5.43611e-26), No Iterations 109
maxResidual = 0.00850508

ExecutionTime = 26.15 s  ClockTime = 27 s

Time = 238

         Steady solver/PNP-NS Iteration      # 1
BiCGStab:  Solving for PNP, Initial residual = (0.00428961 0.00668467 6.94518e-15), Final residual = (1.52113e-26 2.32165e-26 3.91406e-26), No Iterations 113
maxResidual = 0.00668467

ExecutionTime = 26.26 s  ClockTime = 27 s

Time = 239

         Steady solver/PNP-NS Iteration      # 1
BiCGStab:  Solving for PNP, Initial residual = (0.00570293 0.00834344 9.33751e-15), Final residual = (2.31367e-26 3.53098e-26 5.9334e-26), No Iterations 107
maxResidual = 0.00834344

ExecutionTime = 26.37 s  ClockTime = 27 s

Time = 240

         Steady solver/PNP-NS Iteration      # 1
BiCGStab:  Solving for PNP, Initial residual = (0.00422574 0.00658522 6.79724e-15), Final residual = (2.61611e-26 3.99206e-26 6.70423e-26), No Iterations 111
maxResidual = 0.00658522

ExecutionTime = 26.48 s  ClockTime = 27 s

Time = 241

         Steady solver/PNP-NS Iteration      # 1
BiCGStab:  Solving for PNP, Initial residual = (0.00559596 0.00818522 8.89086e-15), Final residual = (2.41129e-26 3.67885e-26 6.39635e-26), No Iterations 110
maxResidual = 0.00818522

ExecutionTime = 26.59 s  ClockTime = 27 s

Time = 242

         Steady solver/PNP-NS Iteration      # 1
BiCGStab:  Solving for PNP, Initial residual = (0.00416275 0.00648712 6.91943e-15), Final residual = (2.91244e-26 4.44302e-26 7.4578e-26), No Iterations 110
maxResidual = 0.00648712

ExecutionTime = 26.7 s  ClockTime = 27 s

Time = 243

         Steady solver/PNP-NS Iteration      # 1
BiCGStab:  Solving for PNP, Initial residual = (0.00549122 0.00803034 8.88224e-15), Final residual = (2.07864e-26 3.17158e-26 5.38891e-26), No Iterations 108
maxResidual = 0.00803034

ExecutionTime = 26.8 s  ClockTime = 28 s

Time = 244

         Steady solver/PNP-NS Iteration      # 1
BiCGStab:  Solving for PNP, Initial residual = (0.00410061 0.00639035 6.95043e-15), Final residual = (2.77687e-26 4.2379e-26 7.23845e-26), No Iterations 115
maxResidual = 0.00639035

ExecutionTime = 26.91 s  ClockTime = 28 s

Time = 245

         Steady solver/PNP-NS Iteration      # 1
BiCGStab:  Solving for PNP, Initial residual = (0.00538867 0.0078787 8.94417e-15), Final residual = (2.95768e-26 4.51383e-26 7.57233e-26), No Iterations 112
maxResidual = 0.0078787

ExecutionTime = 27.03 s  ClockTime = 28 s

Time = 246

         Steady solver/PNP-NS Iteration      # 1
BiCGStab:  Solving for PNP, Initial residual = (0.00403933 0.0062949 6.85903e-15), Final residual = (1.97487e-26 3.01362e-26 5.08172e-26), No Iterations 110
maxResidual = 0.0062949

ExecutionTime = 27.13 s  ClockTime = 28 s

Time = 247

         Steady solver/PNP-NS Iteration      # 1
BiCGStab:  Solving for PNP, Initial residual = (0.00528823 0.00773024 9.18808e-15), Final residual = (1.77494e-26 2.70961e-26 4.5556e-26), No Iterations 107
maxResidual = 0.00773024

ExecutionTime = 27.24 s  ClockTime = 28 s

Time = 248

         Steady solver/PNP-NS Iteration      # 1
BiCGStab:  Solving for PNP, Initial residual = (0.0039789 0.00620075 6.95048e-15), Final residual = (2.16182e-26 3.29869e-26 5.56491e-26), No Iterations 113
maxResidual = 0.00620075

ExecutionTime = 27.35 s  ClockTime = 28 s

Time = 249

         Steady solver/PNP-NS Iteration      # 1
BiCGStab:  Solving for PNP, Initial residual = (0.00518988 0.00758487 8.90846e-15), Final residual = (9.64431e-27 1.47179e-26 2.48514e-26), No Iterations 108
maxResidual = 0.00758487

ExecutionTime = 27.45 s  ClockTime = 28 s

Time = 250

         Steady solver/PNP-NS Iteration      # 1
BiCGStab:  Solving for PNP, Initial residual = (0.00391929 0.00610788 7.00298e-15), Final residual = (1.59533e-26 2.43425e-26 4.08261e-26), No Iterations 119
maxResidual = 0.00610788

ExecutionTime = 27.57 s  ClockTime = 28 s

Time = 251

         Steady solver/PNP-NS Iteration      # 1
BiCGStab:  Solving for PNP, Initial residual = (0.00509355 0.00744252 8.91629e-15), Final residual = (1.91276e-26 2.91919e-26 4.88197e-26), No Iterations 109
maxResidual = 0.00744252

ExecutionTime = 27.68 s  ClockTime = 28 s

Time = 252

         Steady solver/PNP-NS Iteration      # 1
BiCGStab:  Solving for PNP, Initial residual = (0.00386051 0.00601629 6.90944e-15), Final residual = (2.16202e-26 3.30177e-26 5.53138e-26), No Iterations 111
maxResidual = 0.00601629

ExecutionTime = 27.8 s  ClockTime = 29 s

Time = 253

         Steady solver/PNP-NS Iteration      # 1
BiCGStab:  Solving for PNP, Initial residual = (0.00499921 0.00730311 8.95747e-15), Final residual = (3.15181e-26 4.80966e-26 8.14163e-26), No Iterations 108
maxResidual = 0.00730311

ExecutionTime = 27.9 s  ClockTime = 29 s

Time = 254

         Steady solver/PNP-NS Iteration      # 1
BiCGStab:  Solving for PNP, Initial residual = (0.00380254 0.00592596 7.16736e-15), Final residual = (1.24733e-26 1.90305e-26 3.27068e-26), No Iterations 112
maxResidual = 0.00592596

ExecutionTime = 28.01 s  ClockTime = 29 s

Time = 255

         Steady solver/PNP-NS Iteration      # 1
BiCGStab:  Solving for PNP, Initial residual = (0.0049068 0.00716659 8.73489e-15), Final residual = (2.66397e-26 4.06455e-26 6.97552e-26), No Iterations 108
maxResidual = 0.00716659

ExecutionTime = 28.12 s  ClockTime = 29 s

Time = 256

         Steady solver/PNP-NS Iteration      # 1
BiCGStab:  Solving for PNP, Initial residual = (0.00374537 0.00583687 6.92338e-15), Final residual = (1.52553e-26 2.32763e-26 3.99189e-26), No Iterations 120
maxResidual = 0.00583687

ExecutionTime = 28.23 s  ClockTime = 29 s

Time = 257

         Steady solver/PNP-NS Iteration      # 1
BiCGStab:  Solving for PNP, Initial residual = (0.00481629 0.00703288 9.03847e-15), Final residual = (2.58572e-26 3.94258e-26 7.21238e-26), No Iterations 116
maxResidual = 0.00703288

ExecutionTime = 28.34 s  ClockTime = 29 s

Time = 258

         Steady solver/PNP-NS Iteration      # 1
BiCGStab:  Solving for PNP, Initial residual = (0.00368901 0.00574906 6.90718e-15), Final residual = (9.32166e-27 1.42621e-26 2.40726e-26), No Iterations 114
maxResidual = 0.00574906

ExecutionTime = 28.45 s  ClockTime = 29 s

Time = 259

         Steady solver/PNP-NS Iteration      # 1
BiCGStab:  Solving for PNP, Initial residual = (0.00472762 0.00690191 8.72593e-15), Final residual = (1.75219e-26 2.67389e-26 4.52602e-26), No Iterations 109
maxResidual = 0.00690191

ExecutionTime = 28.55 s  ClockTime = 29 s

Time = 260

         Steady solver/PNP-NS Iteration      # 1
BiCGStab:  Solving for PNP, Initial residual = (0.00363343 0.00566247 6.85566e-15), Final residual = (3.15158e-26 4.80938e-26 8.09774e-26), No Iterations 118
maxResidual = 0.00566247

ExecutionTime = 28.68 s  ClockTime = 29 s

Time = 261

         Steady solver/PNP-NS Iteration      # 1
BiCGStab:  Solving for PNP, Initial residual = (0.00464077 0.00677363 9.11723e-15), Final residual = (2.96342e-26 4.52169e-26 7.7348e-26), No Iterations 108
maxResidual = 0.00677363

ExecutionTime = 28.78 s  ClockTime = 30 s

Time = 262

         Steady solver/PNP-NS Iteration      # 1
BiCGStab:  Solving for PNP, Initial residual = (0.00357863 0.00557708 6.89905e-15), Final residual = (9.82412e-27 1.49916e-26 2.52543e-26), No Iterations 111
maxResidual = 0.00557708

ExecutionTime = 28.89 s  ClockTime = 30 s

Time = 263

         Steady solver/PNP-NS Iteration      # 1
BiCGStab:  Solving for PNP, Initial residual = (0.00455569 0.00664798 9.09587e-15), Final residual = (2.98145e-26 4.54614e-26 8.24618e-26), No Iterations 109
maxResidual = 0.00664798

ExecutionTime = 29.01 s  ClockTime = 30 s

Time = 264

         Steady solver/PNP-NS Iteration      # 1
BiCGStab:  Solving for PNP, Initial residual = (0.0035246 0.00549288 7.11736e-15), Final residual = (2.02999e-26 3.09517e-26 5.56453e-26), No Iterations 112
maxResidual = 0.00549288

ExecutionTime = 29.11 s  ClockTime = 30 s

Time = 265

         Steady solver/PNP-NS Iteration      # 1
BiCGStab:  Solving for PNP, Initial residual = (0.00447235 0.00652491 8.68548e-15), Final residual = (1.59005e-26 2.42653e-26 4.09e-26), No Iterations 109
maxResidual = 0.00652491

ExecutionTime = 29.22 s  ClockTime = 30 s

Time = 266

         Steady solver/PNP-NS Iteration      # 1
BiCGStab:  Solving for PNP, Initial residual = (0.00347134 0.00540987 7.02441e-15), Final residual = (1.7669e-26 2.69589e-26 4.60819e-26), No Iterations 112
maxResidual = 0.00540987

ExecutionTime = 29.33 s  ClockTime = 30 s

Time = 267

         Steady solver/PNP-NS Iteration      # 1
BiCGStab:  Solving for PNP, Initial residual = (0.00439071 0.00640435 8.91303e-15), Final residual = (2.07751e-26 3.17042e-26 5.35038e-26), No Iterations 108
maxResidual = 0.00640435

ExecutionTime = 29.43 s  ClockTime = 30 s

Time = 268

         Steady solver/PNP-NS Iteration      # 1
BiCGStab:  Solving for PNP, Initial residual = (0.00341884 0.00532803 7.10811e-15), Final residual = (1.97377e-26 3.00811e-26 5.06914e-26), No Iterations 111
maxResidual = 0.00532803

ExecutionTime = 29.54 s  ClockTime = 30 s

Time = 269

         Steady solver/PNP-NS Iteration      # 1
BiCGStab:  Solving for PNP, Initial residual = (0.00431073 0.00628626 8.67147e-15), Final residual = (2.25715e-26 3.44395e-26 5.90792e-26), No Iterations 108
maxResidual = 0.00628626

ExecutionTime = 29.65 s  ClockTime = 30 s

Time = 270

         Steady solver/PNP-NS Iteration      # 1
BiCGStab:  Solving for PNP, Initial residual = (0.00336709 0.00524735 6.98519e-15), Final residual = (2.53617e-27 3.87489e-27 6.52476e-27), No Iterations 122
maxResidual = 0.00524735

ExecutionTime = 29.77 s  ClockTime = 31 s

Time = 271

         Steady solver/PNP-NS Iteration      # 1
BiCGStab:  Solving for PNP, Initial residual = (0.00423238 0.00617057 8.90626e-15), Final residual = (5.95621e-27 9.08677e-27 1.55364e-26), No Iterations 108
maxResidual = 0.00617057

ExecutionTime = 29.89 s  ClockTime = 31 s

Time = 272

         Steady solver/PNP-NS Iteration      # 1
BiCGStab:  Solving for PNP, Initial residual = (0.00331608 0.00516784 6.92727e-15), Final residual = (2.45253e-26 3.74222e-26 6.36173e-26), No Iterations 112
maxResidual = 0.00516784

ExecutionTime = 29.99 s  ClockTime = 31 s

Time = 273

         Steady solver/PNP-NS Iteration      # 1
BiCGStab:  Solving for PNP, Initial residual = (0.00415564 0.00605726 8.63546e-15), Final residual = (2.01288e-26 3.07086e-26 5.32431e-26), No Iterations 109
maxResidual = 0.00605726

[...]
maxResidual = 8.1234e-06

ExecutionTime = 209.15 s  ClockTime = 215 s

Time = 1933

         Steady solver/PNP-NS Iteration      # 1
BiCGStab:  Solving for PNP, Initial residual = (6.03482e-06 7.94994e-06 5.64347e-15), Final residual = (7.88319e-27 1.17953e-26 6.94564e-26), No Iterations 103
maxResidual = 7.94994e-06

ExecutionTime = 209.25 s  ClockTime = 216 s

Time = 1934

         Steady solver/PNP-NS Iteration      # 1
BiCGStab:  Solving for PNP, Initial residual = (5.77147e-06 8.08576e-06 5.95174e-15), Final residual = (1.03605e-26 1.57653e-26 7.88086e-26), No Iterations 98
maxResidual = 8.08576e-06

ExecutionTime = 209.34 s  ClockTime = 216 s

Time = 1935

         Steady solver/PNP-NS Iteration      # 1
BiCGStab:  Solving for PNP, Initial residual = (6.00793e-06 7.91418e-06 5.56379e-15), Final residual = (2.85744e-27 4.3484e-27 2.17802e-26), No Iterations 104
maxResidual = 7.91418e-06

ExecutionTime = 209.45 s  ClockTime = 216 s

Time = 1936

         Steady solver/PNP-NS Iteration      # 1
BiCGStab:  Solving for PNP, Initial residual = (5.74694e-06 8.04832e-06 5.94049e-15), Final residual = (9.22119e-27 1.38547e-26 7.26211e-26), No Iterations 98
maxResidual = 8.04832e-06

ExecutionTime = 209.54 s  ClockTime = 216 s

Time = 1937

         Steady solver/PNP-NS Iteration      # 1
BiCGStab:  Solving for PNP, Initial residual = (5.98118e-06 7.8786e-06 5.65975e-15), Final residual = (6.95909e-27 1.06022e-26 4.59277e-26), No Iterations 104
maxResidual = 7.8786e-06

ExecutionTime = 209.64 s  ClockTime = 216 s

Time = 1938

         Steady solver/PNP-NS Iteration      # 1
BiCGStab:  Solving for PNP, Initial residual = (5.72252e-06 8.01108e-06 6.07931e-15), Final residual = (5.28883e-27 8.04738e-27 4.22036e-26), No Iterations 98
maxResidual = 8.01108e-06

ExecutionTime = 209.73 s  ClockTime = 216 s

Time = 1939

         Steady solver/PNP-NS Iteration      # 1
BiCGStab:  Solving for PNP, Initial residual = (5.95456e-06 7.84321e-06 5.75789e-15), Final residual = (6.81022e-27 1.03603e-26 5.15723e-26), No Iterations 103
maxResidual = 7.84321e-06

ExecutionTime = 209.85 s  ClockTime = 216 s

Time = 1940

         Steady solver/PNP-NS Iteration      # 1
BiCGStab:  Solving for PNP, Initial residual = (5.69823e-06 7.97404e-06 5.85375e-15), Final residual = (5.28107e-27 8.03519e-27 4.24439e-26), No Iterations 99
maxResidual = 7.97404e-06

ExecutionTime = 209.95 s  ClockTime = 216 s

Time = 1941

         Steady solver/PNP-NS Iteration      # 1
BiCGStab:  Solving for PNP, Initial residual = (5.92808e-06 7.808e-06 5.68161e-15), Final residual = (3.79519e-27 5.77217e-27 3.03245e-26), No Iterations 102
maxResidual = 7.808e-06

ExecutionTime = 210.05 s  ClockTime = 216 s

Time = 1942

         Steady solver/PNP-NS Iteration      # 1
BiCGStab:  Solving for PNP, Initial residual = (5.67406e-06 7.93719e-06 5.87352e-15), Final residual = (7.55265e-27 1.14838e-26 6.36085e-26), No Iterations 96
maxResidual = 7.93719e-06

ExecutionTime = 210.15 s  ClockTime = 216 s

Time = 1943

         Steady solver/PNP-NS Iteration      # 1
BiCGStab:  Solving for PNP, Initial residual = (5.90174e-06 7.77297e-06 5.77291e-15), Final residual = (4.89297e-27 7.45296e-27 3.39168e-26), No Iterations 101
maxResidual = 7.77297e-06

ExecutionTime = 210.25 s  ClockTime = 217 s

Time = 1944

         Steady solver/PNP-NS Iteration      # 1
BiCGStab:  Solving for PNP, Initial residual = (5.65e-06 7.90054e-06 5.90236e-15), Final residual = (9.01404e-27 1.37089e-26 6.53016e-26), No Iterations 96
maxResidual = 7.90054e-06

ExecutionTime = 210.34 s  ClockTime = 217 s

Time = 1945

         Steady solver/PNP-NS Iteration      # 1
BiCGStab:  Solving for PNP, Initial residual = (5.87553e-06 7.73812e-06 5.67068e-15), Final residual = (1.25759e-26 1.91338e-26 9.45418e-26), No Iterations 104
maxResidual = 7.73812e-06

ExecutionTime = 210.45 s  ClockTime = 217 s

Time = 1946

         Steady solver/PNP-NS Iteration      # 1
BiCGStab:  Solving for PNP, Initial residual = (5.62606e-06 7.86409e-06 6.10185e-15), Final residual = (9.1562e-27 1.38449e-26 8.77033e-26), No Iterations 101
maxResidual = 7.86409e-06

ExecutionTime = 210.54 s  ClockTime = 217 s

Time = 1947

         Steady solver/PNP-NS Iteration      # 1
BiCGStab:  Solving for PNP, Initial residual = (5.84946e-06 7.70345e-06 5.85058e-15), Final residual = (5.20065e-27 7.89398e-27 4.06263e-26), No Iterations 101
maxResidual = 7.70345e-06

ExecutionTime = 210.64 s  ClockTime = 217 s

Time = 1948

         Steady solver/PNP-NS Iteration      # 1
BiCGStab:  Solving for PNP, Initial residual = (5.60223e-06 7.82783e-06 6.03862e-15), Final residual = (6.74063e-27 1.02684e-26 4.34558e-26), No Iterations 96
maxResidual = 7.82783e-06

ExecutionTime = 210.74 s  ClockTime = 217 s

Time = 1949

         Steady solver/PNP-NS Iteration      # 1
BiCGStab:  Solving for PNP, Initial residual = (5.82352e-06 7.66896e-06 5.71183e-15), Final residual = (9.91259e-27 1.50649e-26 6.99619e-26), No Iterations 102
maxResidual = 7.66896e-06

ExecutionTime = 210.85 s  ClockTime = 217 s

Time = 1950

         Steady solver/PNP-NS Iteration      # 1
BiCGStab:  Solving for PNP, Initial residual = (5.57852e-06 7.79176e-06 6.08682e-15), Final residual = (8.82447e-27 1.27833e-26 4.75047e-26), No Iterations 98
maxResidual = 7.79176e-06

ExecutionTime = 210.96 s  ClockTime = 217 s

Time = 1951

         Steady solver/PNP-NS Iteration      # 1
BiCGStab:  Solving for PNP, Initial residual = (5.79772e-06 7.63464e-06 5.67814e-15), Final residual = (9.85831e-27 1.49974e-26 7.91537e-26), No Iterations 101
maxResidual = 7.63464e-06

ExecutionTime = 211.05 s  ClockTime = 217 s

Time = 1952

         Steady solver/PNP-NS Iteration      # 1
BiCGStab:  Solving for PNP, Initial residual = (5.55493e-06 7.75588e-06 5.85861e-15), Final residual = (1.22408e-26 1.86308e-26 8.88742e-26), No Iterations 95
maxResidual = 7.75588e-06

ExecutionTime = 211.15 s  ClockTime = 218 s

Time = 1953

         Steady solver/PNP-NS Iteration      # 1
BiCGStab:  Solving for PNP, Initial residual = (5.77204e-06 7.60051e-06 5.797e-15), Final residual = (1.06687e-26 1.6197e-26 9.31447e-26), No Iterations 103
maxResidual = 7.60051e-06

ExecutionTime = 211.25 s  ClockTime = 218 s

Time = 1954

         Steady solver/PNP-NS Iteration      # 1
BiCGStab:  Solving for PNP, Initial residual = (5.53145e-06 7.72019e-06 5.91312e-15), Final residual = (7.54657e-27 1.14907e-26 5.50268e-26), No Iterations 95
maxResidual = 7.72019e-06

ExecutionTime = 211.34 s  ClockTime = 218 s

Time = 1955

         Steady solver/PNP-NS Iteration      # 1
BiCGStab:  Solving for PNP, Initial residual = (5.7465e-06 7.56654e-06 5.64918e-15), Final residual = (4.43707e-27 6.72099e-27 4.01345e-26), No Iterations 102
maxResidual = 7.56654e-06

ExecutionTime = 211.45 s  ClockTime = 218 s

Time = 1956

         Steady solver/PNP-NS Iteration      # 1
BiCGStab:  Solving for PNP, Initial residual = (5.50808e-06 7.68469e-06 5.98214e-15), Final residual = (7.38938e-27 1.12502e-26 5.3409e-26), No Iterations 96
maxResidual = 7.68469e-06

ExecutionTime = 211.54 s  ClockTime = 218 s

Time = 1957

         Steady solver/PNP-NS Iteration      # 1
BiCGStab:  Solving for PNP, Initial residual = (5.72109e-06 7.53276e-06 5.74557e-15), Final residual = (1.13944e-26 1.73425e-26 8.32457e-26), No Iterations 103
maxResidual = 7.53276e-06

ExecutionTime = 211.65 s  ClockTime = 218 s

Time = 1958

         Steady solver/PNP-NS Iteration      # 1
BiCGStab:  Solving for PNP, Initial residual = (5.48483e-06 7.64938e-06 5.9849e-15), Final residual = (5.00977e-27 7.618e-27 4.30611e-26), No Iterations 96
maxResidual = 7.64938e-06

ExecutionTime = 211.74 s  ClockTime = 218 s

Time = 1959

         Steady solver/PNP-NS Iteration      # 1
BiCGStab:  Solving for PNP, Initial residual = (5.6958e-06 7.49914e-06 5.62854e-15), Final residual = (2.53349e-27 3.85701e-27 1.77665e-26), No Iterations 105
maxResidual = 7.49914e-06

ExecutionTime = 211.85 s  ClockTime = 218 s

Time = 1960

         Steady solver/PNP-NS Iteration      # 1
BiCGStab:  Solving for PNP, Initial residual = (5.46169e-06 7.61425e-06 6.04461e-15), Final residual = (9.55792e-27 1.45565e-26 6.64444e-26), No Iterations 96
maxResidual = 7.61425e-06

ExecutionTime = 211.96 s  ClockTime = 218 s

Time = 1961

         Steady solver/PNP-NS Iteration      # 1
BiCGStab:  Solving for PNP, Initial residual = (5.67065e-06 7.4657e-06 5.68111e-15), Final residual = (9.87066e-27 1.50454e-26 5.56757e-26), No Iterations 103
maxResidual = 7.4657e-06

ExecutionTime = 212.06 s  ClockTime = 218 s

Time = 1962

         Steady solver/PNP-NS Iteration      # 1
BiCGStab:  Solving for PNP, Initial residual = (5.43866e-06 7.57931e-06 5.82022e-15), Final residual = (6.81277e-27 1.03666e-26 5.35176e-26), No Iterations 96
maxResidual = 7.57931e-06

ExecutionTime = 212.16 s  ClockTime = 219 s

Time = 1963

         Steady solver/PNP-NS Iteration      # 1
BiCGStab:  Solving for PNP, Initial residual = (5.64562e-06 7.43242e-06 5.75318e-15), Final residual = (9.25581e-27 1.40345e-26 7.98476e-26), No Iterations 102
maxResidual = 7.43242e-06

ExecutionTime = 212.26 s  ClockTime = 219 s

Time = 1964

         Steady solver/PNP-NS Iteration      # 1
BiCGStab:  Solving for PNP, Initial residual = (5.41574e-06 7.54455e-06 5.91429e-15), Final residual = (5.15459e-27 7.84768e-27 3.70005e-26), No Iterations 96
maxResidual = 7.54455e-06

ExecutionTime = 212.35 s  ClockTime = 219 s

Time = 1965

         Steady solver/PNP-NS Iteration      # 1
BiCGStab:  Solving for PNP, Initial residual = (5.62072e-06 7.39932e-06 5.59873e-15), Final residual = (6.1749e-27 9.39229e-27 4.29849e-26), No Iterations 103
maxResidual = 7.39932e-06

ExecutionTime = 212.46 s  ClockTime = 219 s

Time = 1966

         Steady solver/PNP-NS Iteration      # 1
BiCGStab:  Solving for PNP, Initial residual = (5.39293e-06 7.50998e-06 5.93732e-15), Final residual = (4.79488e-27 7.30527e-27 3.08082e-26), No Iterations 96
maxResidual = 7.50998e-06

ExecutionTime = 212.55 s  ClockTime = 219 s

Time = 1967

         Steady solver/PNP-NS Iteration      # 1
BiCGStab:  Solving for PNP, Initial residual = (5.59595e-06 7.36639e-06 5.74956e-15), Final residual = (1.95582e-27 2.94462e-27 1.65051e-26), No Iterations 102
maxResidual = 7.36639e-06

ExecutionTime = 212.65 s  ClockTime = 219 s

Time = 1968

         Steady solver/PNP-NS Iteration      # 1
BiCGStab:  Solving for PNP, Initial residual = (5.37023e-06 7.47559e-06 5.86956e-15), Final residual = (1.15356e-26 1.75327e-26 8.77731e-26), No Iterations 96
maxResidual = 7.47559e-06

ExecutionTime = 212.74 s  ClockTime = 219 s

Time = 1969

         Steady solver/PNP-NS Iteration      # 1
BiCGStab:  Solving for PNP, Initial residual = (5.57131e-06 7.33362e-06 5.67197e-15), Final residual = (1.81239e-27 2.75303e-27 1.29516e-26), No Iterations 104
maxResidual = 7.33362e-06

ExecutionTime = 212.84 s  ClockTime = 219 s

Time = 1970

         Steady solver/PNP-NS Iteration      # 1
BiCGStab:  Solving for PNP, Initial residual = (5.34765e-06 7.44138e-06 5.9026e-15), Final residual = (1.25742e-26 1.91268e-26 9.5944e-26), No Iterations 95
maxResidual = 7.44138e-06

ExecutionTime = 212.95 s  ClockTime = 219 s

Time = 1971

         Steady solver/PNP-NS Iteration      # 1
BiCGStab:  Solving for PNP, Initial residual = (5.54678e-06 7.30102e-06 5.4951e-15), Final residual = (3.39249e-27 5.16656e-27 2.40578e-26), No Iterations 102
maxResidual = 7.30102e-06

ExecutionTime = 213.05 s  ClockTime = 219 s

Time = 1972

         Steady solver/PNP-NS Iteration      # 1
BiCGStab:  Solving for PNP, Initial residual = (5.32516e-06 7.40735e-06 5.99154e-15), Final residual = (7.57754e-27 1.15123e-26 6.01391e-26), No Iterations 96
maxResidual = 7.40735e-06

ExecutionTime = 213.15 s  ClockTime = 220 s

Time = 1973

         Steady solver/PNP-NS Iteration      # 1
BiCGStab:  Solving for PNP, Initial residual = (5.52239e-06 7.26859e-06 5.61103e-15), Final residual = (1.41127e-27 2.1481e-27 1.00807e-26), No Iterations 101
maxResidual = 7.26859e-06

ExecutionTime = 213.24 s  ClockTime = 220 s

Time = 1974

         Steady solver/PNP-NS Iteration      # 1
BiCGStab:  Solving for PNP, Initial residual = (5.30279e-06 7.3735e-06 5.84845e-15), Final residual = (4.63999e-27 7.01899e-27 4.14603e-26), No Iterations 96
maxResidual = 7.3735e-06

ExecutionTime = 213.34 s  ClockTime = 220 s

Time = 1975

         Steady solver/PNP-NS Iteration      # 1
BiCGStab:  Solving for PNP, Initial residual = (5.49811e-06 7.23632e-06 5.54891e-15), Final residual = (1.54058e-27 2.33611e-27 1.30743e-26), No Iterations 103
maxResidual = 7.23632e-06

ExecutionTime = 213.44 s  ClockTime = 220 s

Time = 1976

         Steady solver/PNP-NS Iteration      # 1
BiCGStab:  Solving for PNP, Initial residual = (5.28053e-06 7.33982e-06 5.96352e-15), Final residual = (9.34895e-27 1.42035e-26 6.93825e-26), No Iterations 96
maxResidual = 7.33982e-06

ExecutionTime = 213.54 s  ClockTime = 220 s

Time = 1977

         Steady solver/PNP-NS Iteration      # 1
BiCGStab:  Solving for PNP, Initial residual = (5.47396e-06 7.20422e-06 5.74954e-15), Final residual = (1.01311e-26 1.54234e-26 7.17795e-26), No Iterations 100
maxResidual = 7.20422e-06

ExecutionTime = 213.63 s  ClockTime = 220 s

Time = 1978

         Steady solver/PNP-NS Iteration      # 1
BiCGStab:  Solving for PNP, Initial residual = (5.25837e-06 7.30632e-06 5.87078e-15), Final residual = (1.36784e-26 2.08242e-26 9.05118e-26), No Iterations 95
maxResidual = 7.30632e-06

ExecutionTime = 213.73 s  ClockTime = 220 s

Time = 1979

         Steady solver/PNP-NS Iteration      # 1
BiCGStab:  Solving for PNP, Initial residual = (5.44993e-06 7.17227e-06 5.53484e-15), Final residual = (8.78875e-27 1.33316e-26 7.43638e-26), No Iterations 105
maxResidual = 7.17227e-06

ExecutionTime = 213.84 s  ClockTime = 220 s

Time = 1980

         Steady solver/PNP-NS Iteration      # 1
BiCGStab:  Solving for PNP, Initial residual = (5.23631e-06 7.273e-06 6.3201e-15), Final residual = (8.38874e-27 1.27568e-26 6.63938e-26), No Iterations 94
maxResidual = 7.273e-06

ExecutionTime = 213.94 s  ClockTime = 220 s

Time = 1981

         Steady solver/PNP-NS Iteration      # 1
BiCGStab:  Solving for PNP, Initial residual = (5.42602e-06 7.1405e-06 5.64142e-15), Final residual = (9.72475e-27 1.47508e-26 8.46276e-26), No Iterations 104
maxResidual = 7.1405e-06

ExecutionTime = 214.05 s  ClockTime = 220 s

Time = 1982

         Steady solver/PNP-NS Iteration      # 1
BiCGStab:  Solving for PNP, Initial residual = (5.21436e-06 7.23985e-06 5.9019e-15), Final residual = (6.31962e-27 9.60263e-27 5.15877e-26), No Iterations 95
maxResidual = 7.23985e-06

ExecutionTime = 214.14 s  ClockTime = 221 s

Time = 1983

         Steady solver/PNP-NS Iteration      # 1
BiCGStab:  Solving for PNP, Initial residual = (5.40224e-06 7.10888e-06 5.59287e-15), Final residual = (5.42655e-27 8.2406e-27 4.18225e-26), No Iterations 102
maxResidual = 7.10888e-06

ExecutionTime = 214.24 s  ClockTime = 221 s

Time = 1984

         Steady solver/PNP-NS Iteration      # 1
BiCGStab:  Solving for PNP, Initial residual = (5.19252e-06 7.20688e-06 5.92899e-15), Final residual = (1.27226e-26 1.92908e-26 9.15954e-26), No Iterations 95
maxResidual = 7.20688e-06

ExecutionTime = 214.34 s  ClockTime = 221 s

Time = 1985

         Steady solver/PNP-NS Iteration      # 1
BiCGStab:  Solving for PNP, Initial residual = (5.37857e-06 7.07742e-06 5.51733e-15), Final residual = (1.9961e-27 3.03994e-27 1.41023e-26), No Iterations 103
maxResidual = 7.07742e-06

ExecutionTime = 214.44 s  ClockTime = 221 s

Time = 1986

         Steady solver/PNP-NS Iteration      # 1
BiCGStab:  Solving for PNP, Initial residual = (5.17078e-06 7.17407e-06 5.93528e-15), Final residual = (5.54282e-27 8.43412e-27 4.33937e-26), No Iterations 95
maxResidual = 7.17407e-06

ExecutionTime = 214.53 s  ClockTime = 221 s

Time = 1987

         Steady solver/PNP-NS Iteration      # 1
BiCGStab:  Solving for PNP, Initial residual = (5.35502e-06 7.04612e-06 5.63468e-15), Final residual = (4.11846e-27 6.25388e-27 3.65771e-26), No Iterations 106
maxResidual = 7.04612e-06

ExecutionTime = 214.63 s  ClockTime = 221 s

Time = 1988

         Steady solver/PNP-NS Iteration      # 1
BiCGStab:  Solving for PNP, Initial residual = (5.14915e-06 7.14144e-06 6.17877e-15), Final residual = (1.07184e-26 1.62922e-26 8.81169e-26), No Iterations 95
maxResidual = 7.14144e-06

ExecutionTime = 214.73 s  ClockTime = 221 s

Time = 1989

         Steady solver/PNP-NS Iteration      # 1
BiCGStab:  Solving for PNP, Initial residual = (5.33159e-06 7.01498e-06 5.77928e-15), Final residual = (5.35549e-27 8.15401e-27 3.73466e-26), No Iterations 102
maxResidual = 7.01498e-06

ExecutionTime = 214.82 s  ClockTime = 221 s

Time = 1990

         Steady solver/PNP-NS Iteration      # 1
BiCGStab:  Solving for PNP, Initial residual = (5.12761e-06 7.10898e-06 6.07723e-15), Final residual = (8.52182e-27 1.29757e-26 6.58301e-26), No Iterations 95
maxResidual = 7.10898e-06

ExecutionTime = 214.94 s  ClockTime = 221 s

Time = 1991

         Steady solver/PNP-NS Iteration      # 1
BiCGStab:  Solving for PNP, Initial residual = (5.30828e-06 6.984e-06 5.56539e-15), Final residual = (2.60603e-27 3.95861e-27 2.1393e-26), No Iterations 103
maxResidual = 6.984e-06

ExecutionTime = 215.04 s  ClockTime = 221 s

Time = 1992

         Steady solver/PNP-NS Iteration      # 1
BiCGStab:  Solving for PNP, Initial residual = (5.10618e-06 7.07669e-06 5.92327e-15), Final residual = (2.41452e-27 3.65027e-27 2.26876e-26), No Iterations 98
maxResidual = 7.07669e-06

ExecutionTime = 215.13 s  ClockTime = 222 s

Time = 1993

         Steady solver/PNP-NS Iteration      # 1
BiCGStab:  Solving for PNP, Initial residual = (5.28509e-06 6.95317e-06 5.67313e-15), Final residual = (1.11911e-27 1.6948e-27 1.13577e-26), No Iterations 104
maxResidual = 6.95317e-06

ExecutionTime = 215.23 s  ClockTime = 222 s

Time = 1994

         Steady solver/PNP-NS Iteration      # 1
BiCGStab:  Solving for PNP, Initial residual = (5.08486e-06 7.04456e-06 5.85155e-15), Final residual = (2.49925e-27 3.8022e-27 2.00956e-26), No Iterations 97
maxResidual = 7.04456e-06

ExecutionTime = 215.34 s  ClockTime = 222 s

Time = 1995

         Steady solver/PNP-NS Iteration      # 1
BiCGStab:  Solving for PNP, Initial residual = (5.26201e-06 6.9225e-06 5.7719e-15), Final residual = (3.20289e-27 4.86284e-27 2.56502e-26), No Iterations 106
maxResidual = 6.9225e-06

ExecutionTime = 215.44 s  ClockTime = 222 s

Time = 1996

         Steady solver/PNP-NS Iteration      # 1
BiCGStab:  Solving for PNP, Initial residual = (5.06363e-06 7.0126e-06 6.1968e-15), Final residual = (2.60168e-27 3.95248e-27 2.22193e-26), No Iterations 98
maxResidual = 7.0126e-06

ExecutionTime = 215.54 s  ClockTime = 222 s

Time = 1997

         Steady solver/PNP-NS Iteration      # 1
BiCGStab:  Solving for PNP, Initial residual = (5.23905e-06 6.89198e-06 5.69449e-15), Final residual = (1.59825e-27 2.42721e-27 1.27744e-26), No Iterations 102
maxResidual = 6.89198e-06

ExecutionTime = 215.64 s  ClockTime = 222 s

Time = 1998

         Steady solver/PNP-NS Iteration      # 1
BiCGStab:  Solving for PNP, Initial residual = (5.0425e-06 6.98081e-06 5.95887e-15), Final residual = (6.8376e-27 1.04036e-26 5.13763e-26), No Iterations 96
maxResidual = 6.98081e-06

ExecutionTime = 215.73 s  ClockTime = 222 s

Time = 1999

         Steady solver/PNP-NS Iteration      # 1
BiCGStab:  Solving for PNP, Initial residual = (5.2162e-06 6.86162e-06 5.69057e-15), Final residual = (3.38199e-27 5.14704e-27 2.60774e-26), No Iterations 101
maxResidual = 6.86162e-06

ExecutionTime = 215.82 s  ClockTime = 222 s

Time = 2000

         Steady solver/PNP-NS Iteration      # 1
BiCGStab:  Solving for PNP, Initial residual = (5.02148e-06 6.94919e-06 5.88414e-15), Final residual = (9.19853e-27 1.39859e-26 6.91364e-26), No Iterations 95
maxResidual = 6.94919e-06

ExecutionTime = 215.93 s  ClockTime = 222 s

End

