/*---------------------------------------------------------------------------*\
| =========                 |                                                 |
| \\      /  F ield         | foam-extend: Open Source CFD                    |
|  \\    /   O peration     | Version:     4.0                                |
|   \\  /    A nd           | Web:         http://www.foam-extend.org         |
|    \\/     M anipulation  | For copyright notice see file Copyright         |
\*---------------------------------------------------------------------------*/
Build    : 4.0-268bb07d15d8
Exec     : PNPnonDFoam
Date     : Mar 13 2024
Time     : 20:41:07
Host     : sh-Precision-7920-Tower
PID      : 5408
CtrlDict : "/media/sh/drive1/NextFoam/tutorials/Coupled/2D_example_steady_PNPnonD_analysis/2D_example_steady_PNPnonD_alpha04/system/controlDict"
Case     : /media/sh/drive1/NextFoam/tutorials/Coupled/2D_example_steady_PNPnonD_analysis/2D_example_steady_PNPnonD_alpha04
nProcs   : 1
SigFpe   : Enabling floating point exception trapping (FOAM_SIGFPE).

// * * * * * * * * * * * * * * * * * * * * * * * * * * * * * * * * * * * * * //
Create time

--> FOAM Warning : 
    From function dlLibraryTable::open(const fileName& functionLibName)
    in file db/dlLibraryTable/dlLibraryTable.C at line 124
    could not load libslipEOF.so: cannot open shared object file: No such file or directory
Create mesh for time = 0

Reading field psiE

Reading field psiI

Reading field cPlus

Reading field cMinus

Reading transportProperties

****************************************************************

Scale Parameters
****************************************************************
Average-diffusivity's value: 3.36e-09 [0 2 -1 0 0 0 0]
Time-scale's value: 0.0297619 [0 0 1 0 0 0 0]
Potential-scale's value: 0.025852 [1 2 -3 0 0 -1 0]
Velocity-scale's value: 4.73398e-05 [0 1 -1 0 0 0 0]
pressure-scale's value: 4.73398e-06 [0 2 -2 0 0 0 0]
Debye-Length's value: 9.74139e-09 [0 1 0 0 0 0 0]
Dimensionless diffusion coefficient DPlus_nonD: 0.395833
Dimensionless diffusion coefficient DMinus_nonD: 0.604167
Dimensionless Debye-Length: 0.000974139
Schmidt Number: 297.619
Reynold Number: 0.000473398
Pelec Number: 0.140892
****************************************************************
Reading field psiEGrad

Reading field phiE

Reading field DPlusphiE

Reading field DMinusphiE

Reading field phiDcPlus

Reading field phiDcMinus

Reading field netCharge

Creating field PNP


Starting time loop


Starting time loop

Time = 1

         Steady solver/PNP-NS Iteration      # 1
BiCGStab:  Solving for PNP, Initial residual = (0.450596 0.687752 0.569174), Final residual = (3.08118e-26 4.70276e-26 7.78408e-26), No Iterations 113
maxResidual = 0.687752

ExecutionTime = 0.16 s  ClockTime = 0 s

Time = 2

         Steady solver/PNP-NS Iteration      # 1
BiCGStab:  Solving for PNP, Initial residual = (0.0221634 0.0345822 4.82991e-15), Final residual = (1.13544e-26 1.73282e-26 2.86826e-26), No Iterations 107
maxResidual = 0.0345822

ExecutionTime = 0.29 s  ClockTime = 0 s

Time = 3

         Steady solver/PNP-NS Iteration      # 1
BiCGStab:  Solving for PNP, Initial residual = (0.226639 0.346349 3.03501e-14), Final residual = (1.22489e-26 1.86972e-26 3.09456e-26), No Iterations 108
maxResidual = 0.346349

ExecutionTime = 0.39 s  ClockTime = 0 s

Time = 4

         Steady solver/PNP-NS Iteration      # 1
BiCGStab:  Solving for PNP, Initial residual = (0.0217379 0.0337267 4.5625e-15), Final residual = (1.41741e-26 2.16329e-26 3.58073e-26), No Iterations 106
maxResidual = 0.0337267

ExecutionTime = 0.49 s  ClockTime = 0 s

Time = 5

         Steady solver/PNP-NS Iteration      # 1
BiCGStab:  Solving for PNP, Initial residual = (0.199358 0.304938 2.67869e-14), Final residual = (1.01626e-26 1.55125e-26 2.56752e-26), No Iterations 115
maxResidual = 0.304938

ExecutionTime = 0.6 s  ClockTime = 0 s

Time = 6

         Steady solver/PNP-NS Iteration      # 1
BiCGStab:  Solving for PNP, Initial residual = (0.0212632 0.0329304 4.3382e-15), Final residual = (2.43578e-26 3.71759e-26 6.15343e-26), No Iterations 114
maxResidual = 0.0329304

ExecutionTime = 0.71 s  ClockTime = 0 s

Time = 7

         Steady solver/PNP-NS Iteration      # 1
BiCGStab:  Solving for PNP, Initial residual = (0.174311 0.266879 2.78019e-14), Final residual = (8.53083e-27 1.30226e-26 2.15534e-26), No Iterations 108
maxResidual = 0.266879

ExecutionTime = 0.81 s  ClockTime = 0 s

Time = 8

         Steady solver/PNP-NS Iteration      # 1
BiCGStab:  Solving for PNP, Initial residual = (0.0207791 0.0321663 4.77201e-15), Final residual = (6.46232e-27 9.86367e-27 1.64744e-26), No Iterations 112
maxResidual = 0.0321663

ExecutionTime = 0.92 s  ClockTime = 1 s

Time = 9

         Steady solver/PNP-NS Iteration      # 1
BiCGStab:  Solving for PNP, Initial residual = (0.149694 0.22934 2.53876e-14), Final residual = (6.57718e-27 1.00396e-26 1.66169e-26), No Iterations 108
maxResidual = 0.22934

ExecutionTime = 1.03 s  ClockTime = 1 s

Time = 10

         Steady solver/PNP-NS Iteration      # 1
BiCGStab:  Solving for PNP, Initial residual = (0.0202983 0.0314226 4.88215e-15), Final residual = (5.55696e-27 8.46985e-27 1.40841e-26), No Iterations 105
maxResidual = 0.0314226

ExecutionTime = 1.13 s  ClockTime = 1 s

Time = 11

         Steady solver/PNP-NS Iteration      # 1
BiCGStab:  Solving for PNP, Initial residual = (0.129493 0.198463 2.34552e-14), Final residual = (2.06055e-26 3.14528e-26 5.20588e-26), No Iterations 107
maxResidual = 0.198463

ExecutionTime = 1.24 s  ClockTime = 1 s

Time = 12

         Steady solver/PNP-NS Iteration      # 1
BiCGStab:  Solving for PNP, Initial residual = (0.0198243 0.0306939 4.73929e-15), Final residual = (1.85529e-26 2.83159e-26 4.6876e-26), No Iterations 108
maxResidual = 0.0306939

ExecutionTime = 1.34 s  ClockTime = 1 s

Time = 13

         Steady solver/PNP-NS Iteration      # 1
BiCGStab:  Solving for PNP, Initial residual = (0.11364 0.174193 2.41503e-14), Final residual = (2.87595e-26 4.39032e-26 7.2663e-26), No Iterations 112
maxResidual = 0.174193

ExecutionTime = 1.45 s  ClockTime = 1 s

Time = 14

         Steady solver/PNP-NS Iteration      # 1
BiCGStab:  Solving for PNP, Initial residual = (0.0193577 0.0299777 4.97076e-15), Final residual = (2.23577e-26 3.41226e-26 5.64815e-26), No Iterations 107
maxResidual = 0.0299777

ExecutionTime = 1.56 s  ClockTime = 1 s

Time = 15

         Steady solver/PNP-NS Iteration      # 1
BiCGStab:  Solving for PNP, Initial residual = (0.100866 0.154613 2.03192e-14), Final residual = (5.48608e-27 8.37386e-27 1.386e-26), No Iterations 113
maxResidual = 0.154613

ExecutionTime = 1.67 s  ClockTime = 1 s

Time = 16

         Steady solver/PNP-NS Iteration      # 1
BiCGStab:  Solving for PNP, Initial residual = (0.0188987 0.0292731 5.36802e-15), Final residual = (2.98008e-26 4.55227e-26 7.57771e-26), No Iterations 106
maxResidual = 0.0292731

ExecutionTime = 1.78 s  ClockTime = 1 s

Time = 17

         Steady solver/PNP-NS Iteration      # 1
BiCGStab:  Solving for PNP, Initial residual = (0.0903478 0.138478 1.95473e-14), Final residual = (1.62166e-26 2.47529e-26 4.09699e-26), No Iterations 107
maxResidual = 0.138478

ExecutionTime = 1.88 s  ClockTime = 2 s

Time = 18

         Steady solver/PNP-NS Iteration      # 1
BiCGStab:  Solving for PNP, Initial residual = (0.018447 0.0285793 5.35665e-15), Final residual = (2.03677e-26 3.10855e-26 5.14555e-26), No Iterations 108
maxResidual = 0.0285793

ExecutionTime = 1.98 s  ClockTime = 2 s

Time = 19

         Steady solver/PNP-NS Iteration      # 1
BiCGStab:  Solving for PNP, Initial residual = (0.0815448 0.124968 1.71087e-14), Final residual = (1.40325e-26 2.14203e-26 3.54532e-26), No Iterations 107
maxResidual = 0.124968

ExecutionTime = 2.09 s  ClockTime = 2 s

Time = 20

         Steady solver/PNP-NS Iteration      # 1
BiCGStab:  Solving for PNP, Initial residual = (0.0180026 0.0278962 5.03836e-15), Final residual = (3.05954e-26 4.66955e-26 7.72944e-26), No Iterations 106
maxResidual = 0.0278962

ExecutionTime = 2.2 s  ClockTime = 2 s

Time = 21

         Steady solver/PNP-NS Iteration      # 1
BiCGStab:  Solving for PNP, Initial residual = (0.0740652 0.113485 1.72793e-14), Final residual = (2.81981e-26 4.30443e-26 7.12428e-26), No Iterations 107
maxResidual = 0.113485

ExecutionTime = 2.32 s  ClockTime = 2 s

Time = 22

         Steady solver/PNP-NS Iteration      # 1
BiCGStab:  Solving for PNP, Initial residual = (0.0175653 0.0272236 5.09304e-15), Final residual = (5.52093e-27 8.42162e-27 1.39547e-26), No Iterations 108
maxResidual = 0.0272236

ExecutionTime = 2.42 s  ClockTime = 2 s

Time = 23

         Steady solver/PNP-NS Iteration      # 1
BiCGStab:  Solving for PNP, Initial residual = (0.0676308 0.103604 1.55754e-14), Final residual = (7.13495e-27 1.08909e-26 1.8026e-26), No Iterations 114
maxResidual = 0.103604

ExecutionTime = 2.53 s  ClockTime = 2 s

Time = 24

         Steady solver/PNP-NS Iteration      # 1
BiCGStab:  Solving for PNP, Initial residual = (0.017135 0.0265613 4.81394e-15), Final residual = (2.94949e-26 4.50175e-26 7.45177e-26), No Iterations 108
maxResidual = 0.0265613

ExecutionTime = 2.64 s  ClockTime = 2 s

Time = 25

         Steady solver/PNP-NS Iteration      # 1
BiCGStab:  Solving for PNP, Initial residual = (0.0620441 0.0950242 1.54601e-14), Final residual = (1.07882e-26 1.64677e-26 2.72542e-26), No Iterations 107
maxResidual = 0.0950242

ExecutionTime = 2.74 s  ClockTime = 2 s

Time = 26

         Steady solver/PNP-NS Iteration      # 1
BiCGStab:  Solving for PNP, Initial residual = (0.0167118 0.0259097 5.11605e-15), Final residual = (3.06625e-26 4.67562e-26 7.74457e-26), No Iterations 107
maxResidual = 0.0259097

ExecutionTime = 2.84 s  ClockTime = 3 s

Time = 27

         Steady solver/PNP-NS Iteration      # 1
BiCGStab:  Solving for PNP, Initial residual = (0.05715 0.0875075 1.40852e-14), Final residual = (1.45874e-26 2.22711e-26 3.68591e-26), No Iterations 107
maxResidual = 0.0875075

ExecutionTime = 2.95 s  ClockTime = 3 s

Time = 28

         Steady solver/PNP-NS Iteration      # 1
BiCGStab:  Solving for PNP, Initial residual = (0.0162958 0.0252686 5.2983e-15), Final residual = (2.55653e-26 3.90172e-26 6.45967e-26), No Iterations 108
maxResidual = 0.0252686

ExecutionTime = 3.05 s  ClockTime = 3 s

Time = 29

         Steady solver/PNP-NS Iteration      # 1
BiCGStab:  Solving for PNP, Initial residual = (0.0528268 0.0808675 1.30415e-14), Final residual = (3.0004e-26 4.58076e-26 7.58147e-26), No Iterations 103
maxResidual = 0.0808675

ExecutionTime = 3.15 s  ClockTime = 3 s

Time = 30

         Steady solver/PNP-NS Iteration      # 1
BiCGStab:  Solving for PNP, Initial residual = (0.0158867 0.024638 5.11632e-15), Final residual = (3.19416e-26 4.87488e-26 8.06975e-26), No Iterations 108
maxResidual = 0.024638

ExecutionTime = 3.27 s  ClockTime = 3 s

Time = 31

         Steady solver/PNP-NS Iteration      # 1
BiCGStab:  Solving for PNP, Initial residual = (0.0489826 0.0749634 1.30804e-14), Final residual = (2.96835e-26 4.53085e-26 7.49951e-26), No Iterations 106
maxResidual = 0.0749634

ExecutionTime = 3.37 s  ClockTime = 3 s

Time = 32

         Steady solver/PNP-NS Iteration      # 1
BiCGStab:  Solving for PNP, Initial residual = (0.0154847 0.0240181 5.34587e-15), Final residual = (2.6918e-26 4.10817e-26 6.80055e-26), No Iterations 107
maxResidual = 0.0240181

ExecutionTime = 3.48 s  ClockTime = 3 s

Time = 33

         Steady solver/PNP-NS Iteration      # 1
BiCGStab:  Solving for PNP, Initial residual = (0.0455461 0.0696859 1.31562e-14), Final residual = (1.61358e-26 2.463e-26 4.07663e-26), No Iterations 106
maxResidual = 0.0696859

ExecutionTime = 3.58 s  ClockTime = 3 s

Time = 34

         Steady solver/PNP-NS Iteration      # 1
BiCGStab:  Solving for PNP, Initial residual = (0.0150899 0.0234088 5.62144e-15), Final residual = (2.37285e-26 3.62068e-26 5.99587e-26), No Iterations 107
maxResidual = 0.0234088

ExecutionTime = 3.68 s  ClockTime = 3 s

Time = 35

         Steady solver/PNP-NS Iteration      # 1
BiCGStab:  Solving for PNP, Initial residual = (0.0424578 0.0649435 1.27756e-14), Final residual = (1.99012e-26 3.03779e-26 5.02798e-26), No Iterations 106
maxResidual = 0.0649435

ExecutionTime = 3.78 s  ClockTime = 4 s

Time = 36

         Steady solver/PNP-NS Iteration      # 1
BiCGStab:  Solving for PNP, Initial residual = (0.0147023 0.0228105 5.43306e-15), Final residual = (1.05809e-26 1.6149e-26 2.67309e-26), No Iterations 107
maxResidual = 0.0228105

ExecutionTime = 3.89 s  ClockTime = 4 s

Time = 37

         Steady solver/PNP-NS Iteration      # 1
BiCGStab:  Solving for PNP, Initial residual = (0.0396678 0.0606598 1.20661e-14), Final residual = (5.81469e-27 8.87598e-27 1.46923e-26), No Iterations 107
maxResidual = 0.0606598

ExecutionTime = 3.99 s  ClockTime = 4 s

Time = 38

         Steady solver/PNP-NS Iteration      # 1
BiCGStab:  Solving for PNP, Initial residual = (0.0143218 0.0222229 5.61508e-15), Final residual = (4.74965e-27 7.24929e-27 1.19994e-26), No Iterations 105
maxResidual = 0.0222229

ExecutionTime = 4.09 s  ClockTime = 4 s

Time = 39

         Steady solver/PNP-NS Iteration      # 1
BiCGStab:  Solving for PNP, Initial residual = (0.0371364 0.0567734 1.19311e-14), Final residual = (1.61178e-26 2.46016e-26 4.07211e-26), No Iterations 108
maxResidual = 0.0567734

ExecutionTime = 4.19 s  ClockTime = 4 s

Time = 40

         Steady solver/PNP-NS Iteration      # 1
BiCGStab:  Solving for PNP, Initial residual = (0.0139484 0.0216461 5.62951e-15), Final residual = (3.09833e-26 4.72879e-26 7.82746e-26), No Iterations 105
maxResidual = 0.0216461

ExecutionTime = 4.31 s  ClockTime = 4 s

Time = 41

         Steady solver/PNP-NS Iteration      # 1
BiCGStab:  Solving for PNP, Initial residual = (0.0348316 0.0532355 1.234e-14), Final residual = (2.67074e-26 4.07692e-26 6.76309e-26), No Iterations 108
maxResidual = 0.0532355

ExecutionTime = 4.41 s  ClockTime = 4 s

Time = 42

         Steady solver/PNP-NS Iteration      # 1
BiCGStab:  Solving for PNP, Initial residual = (0.0135823 0.0210803 5.78142e-15), Final residual = (7.81842e-27 1.19311e-26 1.9803e-26), No Iterations 106
maxResidual = 0.0210803

ExecutionTime = 4.52 s  ClockTime = 4 s

Time = 43

         Steady solver/PNP-NS Iteration      # 1
BiCGStab:  Solving for PNP, Initial residual = (0.0327264 0.0500044 1.16222e-14), Final residual = (2.15057e-26 3.28274e-26 5.43373e-26), No Iterations 106
maxResidual = 0.0500044

ExecutionTime = 4.62 s  ClockTime = 4 s

Time = 44

         Steady solver/PNP-NS Iteration      # 1
BiCGStab:  Solving for PNP, Initial residual = (0.0132234 0.0205255 6.06154e-15), Final residual = (3.06029e-26 4.67043e-26 7.73122e-26), No Iterations 109
maxResidual = 0.0205255

ExecutionTime = 4.73 s  ClockTime = 5 s

Time = 45

         Steady solver/PNP-NS Iteration      # 1
BiCGStab:  Solving for PNP, Initial residual = (0.030797 0.0470436 1.14157e-14), Final residual = (2.94606e-26 4.49691e-26 7.44332e-26), No Iterations 106
maxResidual = 0.0470436

ExecutionTime = 4.83 s  ClockTime = 5 s

Time = 46

         Steady solver/PNP-NS Iteration      # 1
BiCGStab:  Solving for PNP, Initial residual = (0.0128717 0.0199817 5.67591e-15), Final residual = (2.12316e-26 3.24053e-26 5.36392e-26), No Iterations 105
maxResidual = 0.0199817

ExecutionTime = 4.93 s  ClockTime = 5 s

Time = 47

         Steady solver/PNP-NS Iteration      # 1
BiCGStab:  Solving for PNP, Initial residual = (0.0290232 0.044322 1.15473e-14), Final residual = (7.23585e-27 1.10455e-26 1.82822e-26), No Iterations 107
maxResidual = 0.044322

ExecutionTime = 5.03 s  ClockTime = 5 s

Time = 48

         Steady solver/PNP-NS Iteration      # 1
BiCGStab:  Solving for PNP, Initial residual = (0.0125272 0.0194488 5.84597e-15), Final residual = (1.68922e-26 2.57813e-26 4.26809e-26), No Iterations 106
maxResidual = 0.0194488

ExecutionTime = 5.13 s  ClockTime = 5 s

Time = 49

         Steady solver/PNP-NS Iteration      # 1
BiCGStab:  Solving for PNP, Initial residual = (0.0273878 0.0418134 1.10285e-14), Final residual = (2.17953e-26 3.32692e-26 5.5067e-26), No Iterations 104
maxResidual = 0.0418134

ExecutionTime = 5.24 s  ClockTime = 5 s

Time = 50

         Steady solver/PNP-NS Iteration      # 1
BiCGStab:  Solving for PNP, Initial residual = (0.0121899 0.0189268 6.2622e-15), Final residual = (2.27983e-26 3.47899e-26 5.75937e-26), No Iterations 105
maxResidual = 0.0189268

ExecutionTime = 5.35 s  ClockTime = 5 s

Time = 51

         Steady solver/PNP-NS Iteration      # 1
BiCGStab:  Solving for PNP, Initial residual = (0.0258766 0.0394957 1.16453e-14), Final residual = (1.36744e-26 2.08733e-26 3.45528e-26), No Iterations 106
maxResidual = 0.0394957

ExecutionTime = 5.45 s  ClockTime = 5 s

Time = 52

         Steady solver/PNP-NS Iteration      # 1
BiCGStab:  Solving for PNP, Initial residual = (0.0118598 0.0184157 6.14664e-15), Final residual = (2.2211e-26 3.38621e-26 5.61225e-26), No Iterations 111
maxResidual = 0.0184157

ExecutionTime = 5.55 s  ClockTime = 5 s

Time = 53

         Steady solver/PNP-NS Iteration      # 1
BiCGStab:  Solving for PNP, Initial residual = (0.0244773 0.0373499 1.14598e-14), Final residual = (3.15725e-26 4.81926e-26 7.97723e-26), No Iterations 106
maxResidual = 0.0373499

ExecutionTime = 5.65 s  ClockTime = 5 s

Time = 54

         Steady solver/PNP-NS Iteration      # 1
BiCGStab:  Solving for PNP, Initial residual = (0.0115367 0.0179156 6.12881e-15), Final residual = (2.73183e-26 4.16949e-26 6.90163e-26), No Iterations 107
maxResidual = 0.0179156

ExecutionTime = 5.76 s  ClockTime = 6 s

Time = 55

         Steady solver/PNP-NS Iteration      # 1
BiCGStab:  Solving for PNP, Initial residual = (0.0231788 0.0353591 1.11007e-14), Final residual = (2.82497e-26 4.31227e-26 7.13771e-26), No Iterations 106
maxResidual = 0.0353591

ExecutionTime = 5.87 s  ClockTime = 6 s

Time = 56

         Steady solver/PNP-NS Iteration      # 1
BiCGStab:  Solving for PNP, Initial residual = (0.0112208 0.0174263 6.04308e-15), Final residual = (2.90168e-26 4.42863e-26 7.33221e-26), No Iterations 107
maxResidual = 0.0174263

ExecutionTime = 5.97 s  ClockTime = 6 s

Time = 57

         Steady solver/PNP-NS Iteration      # 1
BiCGStab:  Solving for PNP, Initial residual = (0.0219714 0.0335083 1.11914e-14), Final residual = (1.40916e-26 2.15093e-26 3.56054e-26), No Iterations 105
maxResidual = 0.0335083

ExecutionTime = 6.07 s  ClockTime = 6 s

Time = 58

         Steady solver/PNP-NS Iteration      # 1
BiCGStab:  Solving for PNP, Initial residual = (0.0109119 0.0169478 6.90636e-15), Final residual = (1.61285e-26 2.456e-26 4.07952e-26), No Iterations 107
maxResidual = 0.0169478

ExecutionTime = 6.17 s  ClockTime = 6 s

Time = 59

         Steady solver/PNP-NS Iteration      # 1
BiCGStab:  Solving for PNP, Initial residual = (0.0208465 0.0317841 1.11118e-14), Final residual = (2.25587e-26 3.44334e-26 5.69935e-26), No Iterations 108
maxResidual = 0.0317841

ExecutionTime = 6.27 s  ClockTime = 6 s

Time = 60

         Steady solver/PNP-NS Iteration      # 1
BiCGStab:  Solving for PNP, Initial residual = (0.01061 0.01648 6.10825e-15), Final residual = (1.76323e-26 2.69222e-26 4.4559e-26), No Iterations 105
maxResidual = 0.01648

ExecutionTime = 6.39 s  ClockTime = 6 s

Time = 61

         Steady solver/PNP-NS Iteration      # 1
BiCGStab:  Solving for PNP, Initial residual = (0.0197965 0.0301753 1.08655e-14), Final residual = (1.63698e-26 2.49862e-26 4.13651e-26), No Iterations 106
maxResidual = 0.0301753

ExecutionTime = 6.49 s  ClockTime = 6 s

Time = 62

         Steady solver/PNP-NS Iteration      # 1
BiCGStab:  Solving for PNP, Initial residual = (0.010315 0.0160228 6.20561e-15), Final residual = (2.84809e-26 4.34109e-26 7.24832e-26), No Iterations 109
maxResidual = 0.0160228

ExecutionTime = 6.6 s  ClockTime = 6 s

Time = 63

         Steady solver/PNP-NS Iteration      # 1
BiCGStab:  Solving for PNP, Initial residual = (0.0188153 0.0286719 1.1336e-14), Final residual = (2.12796e-26 3.24835e-26 5.37795e-26), No Iterations 104
maxResidual = 0.0286719

ExecutionTime = 6.7 s  ClockTime = 7 s

Time = 64

         Steady solver/PNP-NS Iteration      # 1
BiCGStab:  Solving for PNP, Initial residual = (0.0100269 0.0155762 6.33842e-15), Final residual = (2.53032e-26 3.86194e-26 6.39351e-26), No Iterations 105
maxResidual = 0.0155762

ExecutionTime = 6.8 s  ClockTime = 7 s

Time = 65

         Steady solver/PNP-NS Iteration      # 1
BiCGStab:  Solving for PNP, Initial residual = (0.0178969 0.0272651 1.10173e-14), Final residual = (1.30669e-26 1.99454e-26 3.30248e-26), No Iterations 107
maxResidual = 0.0272651

ExecutionTime = 6.9 s  ClockTime = 7 s

Time = 66

         Steady solver/PNP-NS Iteration      # 1
BiCGStab:  Solving for PNP, Initial residual = (0.00974558 0.0151402 6.17078e-15), Final residual = (2.37794e-26 3.62883e-26 6.00589e-26), No Iterations 105
maxResidual = 0.0151402

ExecutionTime = 7 s  ClockTime = 7 s

Time = 67

         Steady solver/PNP-NS Iteration      # 1
BiCGStab:  Solving for PNP, Initial residual = (0.0170363 0.0259469 1.06627e-14), Final residual = (2.95449e-26 4.50966e-26 7.4656e-26), No Iterations 110
maxResidual = 0.0259469

ExecutionTime = 7.11 s  ClockTime = 7 s

Time = 68

         Steady solver/PNP-NS Iteration      # 1
BiCGStab:  Solving for PNP, Initial residual = (0.00947107 0.0147146 6.38055e-15), Final residual = (2.45784e-26 3.75119e-26 6.20995e-26), No Iterations 108
maxResidual = 0.0147146

ExecutionTime = 7.21 s  ClockTime = 7 s

Time = 69

         Steady solver/PNP-NS Iteration      # 1
BiCGStab:  Solving for PNP, Initial residual = (0.0162286 0.0247101 1.09208e-14), Final residual = (1.10616e-26 1.68844e-26 2.79489e-26), No Iterations 113
maxResidual = 0.0247101

ExecutionTime = 7.33 s  ClockTime = 7 s

Time = 70

         Steady solver/PNP-NS Iteration      # 1
BiCGStab:  Solving for PNP, Initial residual = (0.00920325 0.0142992 6.48872e-15), Final residual = (1.77612e-26 2.70677e-26 4.55349e-26), No Iterations 106
maxResidual = 0.0142992

ExecutionTime = 7.44 s  ClockTime = 7 s

Time = 71

         Steady solver/PNP-NS Iteration      # 1
BiCGStab:  Solving for PNP, Initial residual = (0.0154696 0.023548 1.07976e-14), Final residual = (5.19837e-27 7.93539e-27 1.31431e-26), No Iterations 111
maxResidual = 0.023548

ExecutionTime = 7.54 s  ClockTime = 7 s

Time = 72

         Steady solver/PNP-NS Iteration      # 1
BiCGStab:  Solving for PNP, Initial residual = (0.00894203 0.0138941 6.12332e-15), Final residual = (2.02946e-26 3.09913e-26 5.13154e-26), No Iterations 108
maxResidual = 0.0138941

ExecutionTime = 7.65 s  ClockTime = 8 s

Time = 73

         Steady solver/PNP-NS Iteration      # 1
BiCGStab:  Solving for PNP, Initial residual = (0.0147554 0.0224548 1.0674e-14), Final residual = (1.42275e-26 2.17165e-26 3.59478e-26), No Iterations 106
maxResidual = 0.0224548

ExecutionTime = 7.75 s  ClockTime = 8 s

Time = 74

         Steady solver/PNP-NS Iteration      # 1
BiCGStab:  Solving for PNP, Initial residual = (0.0086873 0.013499 6.49697e-15), Final residual = (7.7024e-27 1.17352e-26 2.01198e-26), No Iterations 109
maxResidual = 0.013499

ExecutionTime = 7.86 s  ClockTime = 8 s

Time = 75

         Steady solver/PNP-NS Iteration      # 1
BiCGStab:  Solving for PNP, Initial residual = (0.0140828 0.0214254 1.00978e-14), Final residual = (1.18098e-26 1.80258e-26 2.98392e-26), No Iterations 107
maxResidual = 0.0214254

ExecutionTime = 7.96 s  ClockTime = 8 s

Time = 76

         Steady solver/PNP-NS Iteration      # 1
BiCGStab:  Solving for PNP, Initial residual = (0.00843899 0.0131137 6.50625e-15), Final residual = (2.20404e-26 3.36399e-26 5.57066e-26), No Iterations 110
maxResidual = 0.0131137

ExecutionTime = 8.06 s  ClockTime = 8 s

Time = 77

         Steady solver/PNP-NS Iteration      # 1
BiCGStab:  Solving for PNP, Initial residual = (0.0134488 0.020455 1.01896e-14), Final residual = (1.37372e-26 2.09693e-26 3.47154e-26), No Iterations 106
maxResidual = 0.020455

ExecutionTime = 8.16 s  ClockTime = 8 s

Time = 78

         Steady solver/PNP-NS Iteration      # 1
BiCGStab:  Solving for PNP, Initial residual = (0.00819703 0.0127383 6.34986e-15), Final residual = (2.06446e-26 3.15094e-26 5.21609e-26), No Iterations 106
maxResidual = 0.0127383

ExecutionTime = 8.26 s  ClockTime = 8 s

Time = 79

         Steady solver/PNP-NS Iteration      # 1
BiCGStab:  Solving for PNP, Initial residual = (0.0128504 0.0195396 1.00048e-14), Final residual = (2.7771e-26 4.23885e-26 7.01609e-26), No Iterations 104
maxResidual = 0.0195396

ExecutionTime = 8.36 s  ClockTime = 8 s

Time = 80

         Steady solver/PNP-NS Iteration      # 1
BiCGStab:  Solving for PNP, Initial residual = (0.00796133 0.0123726 6.31752e-15), Final residual = (3.16485e-26 4.83016e-26 7.9946e-26), No Iterations 109
maxResidual = 0.0123726

ExecutionTime = 8.48 s  ClockTime = 8 s

Time = 81

         Steady solver/PNP-NS Iteration      # 1
BiCGStab:  Solving for PNP, Initial residual = (0.0122853 0.0186751 1.00141e-14), Final residual = (2.86278e-26 4.37004e-26 7.25381e-26), No Iterations 104
maxResidual = 0.0186751

ExecutionTime = 8.59 s  ClockTime = 9 s

Time = 82

         Steady solver/PNP-NS Iteration      # 1
BiCGStab:  Solving for PNP, Initial residual = (0.0077318 0.0120164 6.48642e-15), Final residual = (1.90776e-26 2.91204e-26 4.99192e-26), No Iterations 104
maxResidual = 0.0120164

ExecutionTime = 8.68 s  ClockTime = 9 s

Time = 83

         Steady solver/PNP-NS Iteration      # 1
BiCGStab:  Solving for PNP, Initial residual = (0.0117512 0.0178581 9.99857e-15), Final residual = (2.51049e-26 3.83192e-26 6.34267e-26), No Iterations 104
maxResidual = 0.0178581

ExecutionTime = 8.78 s  ClockTime = 9 s

Time = 84

         Steady solver/PNP-NS Iteration      # 1
BiCGStab:  Solving for PNP, Initial residual = (0.00750834 0.0116695 6.62338e-15), Final residual = (1.99408e-26 3.04348e-26 5.03874e-26), No Iterations 109
maxResidual = 0.0116695

ExecutionTime = 8.89 s  ClockTime = 9 s

Time = 85

         Steady solver/PNP-NS Iteration      # 1
BiCGStab:  Solving for PNP, Initial residual = (0.0112457 0.0170851 1.01284e-14), Final residual = (2.15757e-26 3.29324e-26 5.45145e-26), No Iterations 104
maxResidual = 0.0170851

ExecutionTime = 8.99 s  ClockTime = 9 s

Time = 86

         Steady solver/PNP-NS Iteration      # 1
BiCGStab:  Solving for PNP, Initial residual = (0.00729083 0.0113319 6.7813e-15), Final residual = (1.56567e-26 2.39146e-26 4.02031e-26), No Iterations 107
maxResidual = 0.0113319

ExecutionTime = 9.1 s  ClockTime = 9 s

Time = 87

         Steady solver/PNP-NS Iteration      # 1
BiCGStab:  Solving for PNP, Initial residual = (0.0107671 0.0163533 9.98429e-15), Final residual = (2.30846e-26 3.52352e-26 5.83258e-26), No Iterations 105
maxResidual = 0.0163533

ExecutionTime = 9.2 s  ClockTime = 9 s

Time = 88

         Steady solver/PNP-NS Iteration      # 1
BiCGStab:  Solving for PNP, Initial residual = (0.00707916 0.0110033 6.70796e-15), Final residual = (3.03176e-26 4.62779e-26 7.66232e-26), No Iterations 106
maxResidual = 0.0110033

ExecutionTime = 9.3 s  ClockTime = 9 s

Time = 89

         Steady solver/PNP-NS Iteration      # 1
BiCGStab:  Solving for PNP, Initial residual = (0.0103135 0.0156599 9.86118e-15), Final residual = (1.65035e-26 2.51906e-26 4.16987e-26), No Iterations 104
maxResidual = 0.0156599

ExecutionTime = 9.41 s  ClockTime = 9 s

Time = 90

         Steady solver/PNP-NS Iteration      # 1
BiCGStab:  Solving for PNP, Initial residual = (0.00687322 0.0106836 6.69719e-15), Final residual = (2.38677e-26 3.64289e-26 6.03049e-26), No Iterations 103
maxResidual = 0.0106836

ExecutionTime = 9.51 s  ClockTime = 10 s

Time = 91

         Steady solver/PNP-NS Iteration      # 1
BiCGStab:  Solving for PNP, Initial residual = (0.00988336 0.0150024 9.61942e-15), Final residual = (2.57518e-26 3.93076e-26 6.54713e-26), No Iterations 105
maxResidual = 0.0150024

ExecutionTime = 9.61 s  ClockTime = 10 s

Time = 92

         Steady solver/PNP-NS Iteration      # 1
BiCGStab:  Solving for PNP, Initial residual = (0.00667293 0.0103726 6.66797e-15), Final residual = (1.02523e-26 1.56478e-26 2.5905e-26), No Iterations 103
maxResidual = 0.0103726

ExecutionTime = 9.71 s  ClockTime = 10 s

Time = 93

         Steady solver/PNP-NS Iteration      # 1
BiCGStab:  Solving for PNP, Initial residual = (0.00947517 0.0143785 9.69073e-15), Final residual = (5.46326e-27 8.33774e-27 1.38129e-26), No Iterations 105
maxResidual = 0.0143785

ExecutionTime = 9.81 s  ClockTime = 10 s

Time = 94

         Steady solver/PNP-NS Iteration      # 1
BiCGStab:  Solving for PNP, Initial residual = (0.00647817 0.0100702 6.74266e-15), Final residual = (2.58142e-26 3.9443e-26 6.53277e-26), No Iterations 103
maxResidual = 0.0100702

ExecutionTime = 9.92 s  ClockTime = 10 s

Time = 95

         Steady solver/PNP-NS Iteration      # 1
BiCGStab:  Solving for PNP, Initial residual = (0.00908759 0.0137863 1.00191e-14), Final residual = (2.84984e-26 4.34985e-26 7.20042e-26), No Iterations 103
maxResidual = 0.0137863

ExecutionTime = 10.02 s  ClockTime = 10 s

Time = 96

         Steady solver/PNP-NS Iteration      # 1
BiCGStab:  Solving for PNP, Initial residual = (0.00628884 0.0097762 6.80368e-15), Final residual = (1.27239e-26 1.94323e-26 3.22199e-26), No Iterations 107
maxResidual = 0.0097762

ExecutionTime = 10.12 s  ClockTime = 10 s

Time = 97

         Steady solver/PNP-NS Iteration      # 1
BiCGStab:  Solving for PNP, Initial residual = (0.00871936 0.0132237 1.01792e-14), Final residual = (2.96417e-26 4.52448e-26 7.48934e-26), No Iterations 103
maxResidual = 0.0132237

ExecutionTime = 10.22 s  ClockTime = 10 s

Time = 98

         Steady solver/PNP-NS Iteration      # 1
BiCGStab:  Solving for PNP, Initial residual = (0.00610485 0.00949045 6.79106e-15), Final residual = (2.59448e-26 3.96344e-26 6.58153e-26), No Iterations 104
maxResidual = 0.00949045

ExecutionTime = 10.31 s  ClockTime = 10 s

Time = 99

         Steady solver/PNP-NS Iteration      # 1
BiCGStab:  Solving for PNP, Initial residual = (0.00836928 0.012689 9.65022e-15), Final residual = (2.01553e-26 3.07653e-26 5.09324e-26), No Iterations 103
maxResidual = 0.012689

ExecutionTime = 10.42 s  ClockTime = 10 s

Time = 100

         Steady solver/PNP-NS Iteration      # 1
BiCGStab:  Solving for PNP, Initial residual = (0.00592607 0.00921277 6.76568e-15), Final residual = (1.4482e-26 2.21007e-26 3.65948e-26), No Iterations 109
maxResidual = 0.00921277

ExecutionTime = 10.53 s  ClockTime = 11 s

Time = 101

         Steady solver/PNP-NS Iteration      # 1
BiCGStab:  Solving for PNP, Initial residual = (0.00803627 0.0121804 9.9086e-15), Final residual = (1.8152e-26 2.77069e-26 4.58728e-26), No Iterations 104
maxResidual = 0.0121804

ExecutionTime = 10.63 s  ClockTime = 11 s

Time = 102

         Steady solver/PNP-NS Iteration      # 1
BiCGStab:  Solving for PNP, Initial residual = (0.00575238 0.00894299 6.83888e-15), Final residual = (2.48246e-26 3.77489e-26 6.72291e-26), No Iterations 105
maxResidual = 0.00894299

ExecutionTime = 10.74 s  ClockTime = 11 s

Time = 103

         Steady solver/PNP-NS Iteration      # 1
BiCGStab:  Solving for PNP, Initial residual = (0.0077193 0.0116964 9.93262e-15), Final residual = (2.78924e-26 4.25737e-26 7.04733e-26), No Iterations 104
maxResidual = 0.0116964

ExecutionTime = 10.84 s  ClockTime = 11 s

Time = 104

         Steady solver/PNP-NS Iteration      # 1
BiCGStab:  Solving for PNP, Initial residual = (0.00558367 0.00868092 6.90878e-15), Final residual = (8.72606e-27 1.33182e-26 2.20462e-26), No Iterations 103
maxResidual = 0.00868092

ExecutionTime = 10.94 s  ClockTime = 11 s

Time = 105

         Steady solver/PNP-NS Iteration      # 1
BiCGStab:  Solving for PNP, Initial residual = (0.00741743 0.0112356 9.7612e-15), Final residual = (2.27564e-26 3.47344e-26 5.75103e-26), No Iterations 105
maxResidual = 0.0112356

ExecutionTime = 11.04 s  ClockTime = 11 s

Time = 106

         Steady solver/PNP-NS Iteration      # 1
BiCGStab:  Solving for PNP, Initial residual = (0.00541983 0.0084264 6.8805e-15), Final residual = (1.69913e-26 2.59234e-26 4.29166e-26), No Iterations 105
maxResidual = 0.0084264

ExecutionTime = 11.13 s  ClockTime = 11 s

Time = 107

         Steady solver/PNP-NS Iteration      # 1
BiCGStab:  Solving for PNP, Initial residual = (0.00712981 0.0107965 9.93631e-15), Final residual = (1.42715e-26 2.17835e-26 3.60617e-26), No Iterations 104
maxResidual = 0.0107965

ExecutionTime = 11.24 s  ClockTime = 11 s

Time = 108

         Steady solver/PNP-NS Iteration      # 1
BiCGStab:  Solving for PNP, Initial residual = (0.00526074 0.00817926 6.95338e-15), Final residual = (8.68755e-27 1.3259e-26 2.19647e-26), No Iterations 105
maxResidual = 0.00817926

ExecutionTime = 11.34 s  ClockTime = 11 s

Time = 109

         Steady solver/PNP-NS Iteration      # 1
BiCGStab:  Solving for PNP, Initial residual = (0.00685565 0.0103781 9.50402e-15), Final residual = (1.85706e-26 2.83449e-26 4.69303e-26), No Iterations 109
maxResidual = 0.0103781

ExecutionTime = 11.45 s  ClockTime = 12 s

Time = 110

         Steady solver/PNP-NS Iteration      # 1
BiCGStab:  Solving for PNP, Initial residual = (0.00510631 0.00793933 6.84296e-15), Final residual = (2.70041e-26 4.12146e-26 6.82478e-26), No Iterations 104
maxResidual = 0.00793933

ExecutionTime = 11.56 s  ClockTime = 12 s

Time = 111

         Steady solver/PNP-NS Iteration      # 1
BiCGStab:  Solving for PNP, Initial residual = (0.00659419 0.00997912 9.96967e-15), Final residual = (2.63518e-26 4.02214e-26 6.65908e-26), No Iterations 106
maxResidual = 0.00997912

ExecutionTime = 11.66 s  ClockTime = 12 s

Time = 112

         Steady solver/PNP-NS Iteration      # 1
BiCGStab:  Solving for PNP, Initial residual = (0.00495641 0.00770645 6.79908e-15), Final residual = (1.86478e-26 2.84609e-26 4.71229e-26), No Iterations 107
maxResidual = 0.00770645

ExecutionTime = 11.76 s  ClockTime = 12 s

Time = 113

         Steady solver/PNP-NS Iteration      # 1
BiCGStab:  Solving for PNP, Initial residual = (0.00634475 0.00959854 9.57275e-15), Final residual = (2.82717e-26 4.31522e-26 7.14338e-26), No Iterations 107
maxResidual = 0.00959854

ExecutionTime = 11.86 s  ClockTime = 12 s

Time = 114

         Steady solver/PNP-NS Iteration      # 1
BiCGStab:  Solving for PNP, Initial residual = (0.00481096 0.00748044 6.96219e-15), Final residual = (1.54735e-26 2.36126e-26 3.9114e-26), No Iterations 103
maxResidual = 0.00748044

ExecutionTime = 11.96 s  ClockTime = 12 s

Time = 115

         Steady solver/PNP-NS Iteration      # 1
BiCGStab:  Solving for PNP, Initial residual = (0.00610666 0.00923534 9.39267e-15), Final residual = (2.8388e-26 4.33298e-26 7.17761e-26), No Iterations 103
maxResidual = 0.00923534

ExecutionTime = 12.07 s  ClockTime = 12 s

Time = 116

         Steady solver/PNP-NS Iteration      # 1
BiCGStab:  Solving for PNP, Initial residual = (0.00466983 0.00726115 6.99437e-15), Final residual = (1.01262e-26 1.54545e-26 2.559e-26), No Iterations 106
maxResidual = 0.00726115

ExecutionTime = 12.17 s  ClockTime = 12 s

Time = 117

         Steady solver/PNP-NS Iteration      # 1
BiCGStab:  Solving for PNP, Initial residual = (0.00587931 0.00888859 9.76705e-15), Final residual = (1.92965e-26 2.94531e-26 4.87542e-26), No Iterations 104
maxResidual = 0.00888859

ExecutionTime = 12.27 s  ClockTime = 12 s

Time = 118

         Steady solver/PNP-NS Iteration      # 1
BiCGStab:  Solving for PNP, Initial residual = (0.00453291 0.0070484 7.19684e-15), Final residual = (1.56617e-26 2.38839e-26 3.96074e-26), No Iterations 105
maxResidual = 0.0070484

ExecutionTime = 12.37 s  ClockTime = 12 s

Time = 119

         Steady solver/PNP-NS Iteration      # 1
BiCGStab:  Solving for PNP, Initial residual = (0.00566213 0.0085574 9.4253e-15), Final residual = (2.82382e-26 4.3101e-26 7.1368e-26), No Iterations 107
maxResidual = 0.0085574

ExecutionTime = 12.48 s  ClockTime = 13 s

Time = 120

         Steady solver/PNP-NS Iteration      # 1
BiCGStab:  Solving for PNP, Initial residual = (0.00440011 0.00684203 7.13013e-15), Final residual = (1.85499e-26 2.83126e-26 4.68732e-26), No Iterations 111
maxResidual = 0.00684203

ExecutionTime = 12.6 s  ClockTime = 13 s

Time = 121

         Steady solver/PNP-NS Iteration      # 1
BiCGStab:  Solving for PNP, Initial residual = (0.00545457 0.00824094 9.28848e-15), Final residual = (2.40238e-26 3.66684e-26 6.07012e-26), No Iterations 104
maxResidual = 0.00824094

ExecutionTime = 12.7 s  ClockTime = 13 s

Time = 122

         Steady solver/PNP-NS Iteration      # 1
BiCGStab:  Solving for PNP, Initial residual = (0.00427131 0.00664186 7.06609e-15), Final residual = (2.26781e-26 3.46132e-26 5.73525e-26), No Iterations 109
maxResidual = 0.00664186

ExecutionTime = 12.81 s  ClockTime = 13 s

Time = 123

         Steady solver/PNP-NS Iteration      # 1
BiCGStab:  Solving for PNP, Initial residual = (0.00525614 0.00793845 9.72055e-15), Final residual = (1.65262e-26 2.52258e-26 4.1809e-26), No Iterations 105
maxResidual = 0.00793845

ExecutionTime = 12.91 s  ClockTime = 13 s

Time = 124

         Steady solver/PNP-NS Iteration      # 1
BiCGStab:  Solving for PNP, Initial residual = (0.0041464 0.00644774 6.91132e-15), Final residual = (2.95364e-26 4.50512e-26 7.48043e-26), No Iterations 106
maxResidual = 0.00644774

ExecutionTime = 13.01 s  ClockTime = 13 s

Time = 125

         Steady solver/PNP-NS Iteration      # 1
BiCGStab:  Solving for PNP, Initial residual = (0.00506636 0.0076492 8.9603e-15), Final residual = (1.69013e-26 2.57969e-26 4.27076e-26), No Iterations 106
maxResidual = 0.0076492

ExecutionTime = 13.11 s  ClockTime = 13 s

Time = 126

         Steady solver/PNP-NS Iteration      # 1
BiCGStab:  Solving for PNP, Initial residual = (0.0040253 0.00625952 7.16604e-15), Final residual = (2.28171e-26 3.48276e-26 5.77231e-26), No Iterations 106
maxResidual = 0.00625952

ExecutionTime = 13.22 s  ClockTime = 13 s

Time = 127

         Steady solver/PNP-NS Iteration      # 1
BiCGStab:  Solving for PNP, Initial residual = (0.0048848 0.00737253 9.07177e-15), Final residual = (1.36765e-26 2.08748e-26 3.45646e-26), No Iterations 107
maxResidual = 0.00737253

ExecutionTime = 13.33 s  ClockTime = 13 s

Time = 128

         Steady solver/PNP-NS Iteration      # 1
BiCGStab:  Solving for PNP, Initial residual = (0.00390789 0.00607703 7.27417e-15), Final residual = (3.10477e-26 4.73851e-26 7.85793e-26), No Iterations 106
maxResidual = 0.00607703

ExecutionTime = 13.42 s  ClockTime = 14 s

Time = 129

         Steady solver/PNP-NS Iteration      # 1
BiCGStab:  Solving for PNP, Initial residual = (0.00471105 0.00710781 8.6757e-15), Final residual = (2.79482e-26 4.26583e-26 7.06531e-26), No Iterations 106
maxResidual = 0.00710781

ExecutionTime = 13.52 s  ClockTime = 14 s

Time = 130

         Steady solver/PNP-NS Iteration      # 1
BiCGStab:  Solving for PNP, Initial residual = (0.00379408 0.00590014 7.19017e-15), Final residual = (8.29878e-27 1.26608e-26 2.0999e-26), No Iterations 108
maxResidual = 0.00590014

ExecutionTime = 13.63 s  ClockTime = 14 s

Time = 131

         Steady solver/PNP-NS Iteration      # 1
BiCGStab:  Solving for PNP, Initial residual = (0.00454473 0.00685445 8.89563e-15), Final residual = (8.05752e-27 1.22985e-26 2.03632e-26), No Iterations 112
maxResidual = 0.00685445

ExecutionTime = 13.75 s  ClockTime = 14 s

Time = 132

         Steady solver/PNP-NS Iteration      # 1
BiCGStab:  Solving for PNP, Initial residual = (0.00368377 0.00572869 7.41967e-15), Final residual = (2.81822e-26 4.30142e-26 7.1251e-26), No Iterations 105
maxResidual = 0.00572869

ExecutionTime = 13.85 s  ClockTime = 14 s

Time = 133

         Steady solver/PNP-NS Iteration      # 1
BiCGStab:  Solving for PNP, Initial residual = (0.00438547 0.00661188 8.71784e-15), Final residual = (3.13199e-26 4.78043e-26 7.92047e-26), No Iterations 103
maxResidual = 0.00661188

ExecutionTime = 13.95 s  ClockTime = 14 s

Time = 134

         Steady solver/PNP-NS Iteration      # 1
BiCGStab:  Solving for PNP, Initial residual = (0.00357688 0.00556253 7.34205e-15), Final residual = (1.77645e-26 2.71977e-26 4.57512e-26), No Iterations 104
maxResidual = 0.00556253

ExecutionTime = 14.05 s  ClockTime = 14 s

Time = 135

         Steady solver/PNP-NS Iteration      # 1
BiCGStab:  Solving for PNP, Initial residual = (0.00423292 0.0063796 9.02985e-15), Final residual = (1.47215e-26 2.247e-26 3.71995e-26), No Iterations 103
maxResidual = 0.0063796

ExecutionTime = 14.15 s  ClockTime = 14 s

Time = 136

         Steady solver/PNP-NS Iteration      # 1
BiCGStab:  Solving for PNP, Initial residual = (0.00347331 0.00540152 7.24983e-15), Final residual = (1.06888e-26 1.63139e-26 2.70083e-26), No Iterations 108
maxResidual = 0.00540152

ExecutionTime = 14.25 s  ClockTime = 14 s

Time = 137

         Steady solver/PNP-NS Iteration      # 1
BiCGStab:  Solving for PNP, Initial residual = (0.00408677 0.00615708 8.91802e-15), Final residual = (2.76446e-26 4.21948e-26 6.98577e-26), No Iterations 103
maxResidual = 0.00615708

ExecutionTime = 14.35 s  ClockTime = 15 s

Time = 138

         Steady solver/PNP-NS Iteration      # 1
BiCGStab:  Solving for PNP, Initial residual = (0.00337295 0.00524552 7.49382e-15), Final residual = (2.63522e-26 4.01972e-26 6.79372e-26), No Iterations 104
maxResidual = 0.00524552

ExecutionTime = 14.45 s  ClockTime = 15 s

Time = 139

         Steady solver/PNP-NS Iteration      # 1
BiCGStab:  Solving for PNP, Initial residual = (0.0039467 0.00594386 9.0305e-15), Final residual = (2.7985e-26 4.27141e-26 7.0713e-26), No Iterations 104
maxResidual = 0.00594386

ExecutionTime = 14.55 s  ClockTime = 15 s

Time = 140

         Steady solver/PNP-NS Iteration      # 1
BiCGStab:  Solving for PNP, Initial residual = (0.00327573 0.00509438 7.34755e-15), Final residual = (1.79106e-26 2.73355e-26 4.52908e-26), No Iterations 109
maxResidual = 0.00509438

ExecutionTime = 14.66 s  ClockTime = 15 s

Time = 141

         Steady solver/PNP-NS Iteration      # 1
BiCGStab:  Solving for PNP, Initial residual = (0.00381241 0.00573949 8.99624e-15), Final residual = (1.67119e-26 2.55076e-26 4.22378e-26), No Iterations 103
maxResidual = 0.00573949

ExecutionTime = 14.77 s  ClockTime = 15 s

Time = 142

         Steady solver/PNP-NS Iteration      # 1
BiCGStab:  Solving for PNP, Initial residual = (0.00318155 0.00494795 7.0462e-15), Final residual = (2.35834e-26 3.59954e-26 5.96047e-26), No Iterations 107
maxResidual = 0.00494795

ExecutionTime = 14.87 s  ClockTime = 15 s

Time = 143

         Steady solver/PNP-NS Iteration      # 1
BiCGStab:  Solving for PNP, Initial residual = (0.00368364 0.00554355 8.65972e-15), Final residual = (1.78436e-26 2.72372e-26 4.52633e-26), No Iterations 103
maxResidual = 0.00554355

ExecutionTime = 14.96 s  ClockTime = 15 s

Time = 144

         Steady solver/PNP-NS Iteration      # 1
BiCGStab:  Solving for PNP, Initial residual = (0.00309032 0.00480612 7.40799e-15), Final residual = (3.07396e-26 4.69178e-26 7.76778e-26), No Iterations 107
maxResidual = 0.00480612

ExecutionTime = 15.07 s  ClockTime = 15 s

Time = 145

         Steady solver/PNP-NS Iteration      # 1
BiCGStab:  Solving for PNP, Initial residual = (0.00356013 0.00535565 8.75422e-15), Final residual = (4.12479e-27 6.29639e-27 1.04324e-26), No Iterations 104
maxResidual = 0.00535565

ExecutionTime = 15.17 s  ClockTime = 15 s

Time = 146

         Steady solver/PNP-NS Iteration      # 1
BiCGStab:  Solving for PNP, Initial residual = (0.00300195 0.00466873 7.1117e-15), Final residual = (1.81269e-26 2.76666e-26 4.58158e-26), No Iterations 106
maxResidual = 0.00466873

ExecutionTime = 15.27 s  ClockTime = 15 s

Time = 147

         Steady solver/PNP-NS Iteration      # 1
BiCGStab:  Solving for PNP, Initial residual = (0.00344162 0.00517541 8.76987e-15), Final residual = (2.34391e-26 3.57756e-26 5.92333e-26), No Iterations 103
maxResidual = 0.00517541

ExecutionTime = 15.36 s  ClockTime = 16 s

Time = 148

         Steady solver/PNP-NS Iteration      # 1
BiCGStab:  Solving for PNP, Initial residual = (0.00291637 0.00453567 7.10631e-15), Final residual = (3.103e-26 4.74691e-26 7.86943e-26), No Iterations 106
maxResidual = 0.00453567

ExecutionTime = 15.46 s  ClockTime = 16 s

Time = 149

         Steady solver/PNP-NS Iteration      # 1
BiCGStab:  Solving for PNP, Initial residual = (0.0033279 0.00500247 8.61411e-15), Final residual = (2.34076e-26 3.57378e-26 5.95897e-26), No Iterations 103
maxResidual = 0.00500247

ExecutionTime = 15.56 s  ClockTime = 16 s

Time = 150

         Steady solver/PNP-NS Iteration      # 1
BiCGStab:  Solving for PNP, Initial residual = (0.00283349 0.00440681 7.39049e-15), Final residual = (2.36098e-26 3.60357e-26 5.96589e-26), No Iterations 106
maxResidual = 0.00440681

ExecutionTime = 15.67 s  ClockTime = 16 s

Time = 151

         Steady solver/PNP-NS Iteration      # 1
BiCGStab:  Solving for PNP, Initial residual = (0.00321875 0.00483652 8.491e-15), Final residual = (2.3964e-26 3.6577e-26 6.05596e-26), No Iterations 103
maxResidual = 0.00483652

ExecutionTime = 15.77 s  ClockTime = 16 s

Time = 152

         Steady solver/PNP-NS Iteration      # 1
BiCGStab:  Solving for PNP, Initial residual = (0.00275324 0.00428202 7.3431e-15), Final residual = (1.68872e-26 2.57399e-26 4.52055e-26), No Iterations 106
maxResidual = 0.00428202

ExecutionTime = 15.88 s  ClockTime = 16 s

Time = 153

         Steady solver/PNP-NS Iteration      # 1
BiCGStab:  Solving for PNP, Initial residual = (0.00311397 0.00467723 8.88167e-15), Final residual = (1.68359e-26 2.56973e-26 4.25538e-26), No Iterations 103
maxResidual = 0.00467723

ExecutionTime = 15.98 s  ClockTime = 16 s

Time = 154

         Steady solver/PNP-NS Iteration      # 1
BiCGStab:  Solving for PNP, Initial residual = (0.00267554 0.00416119 7.35391e-15), Final residual = (7.93362e-27 1.21155e-26 2.01165e-26), No Iterations 106
maxResidual = 0.00416119

ExecutionTime = 16.08 s  ClockTime = 16 s

Time = 155

         Steady solver/PNP-NS Iteration      # 1
BiCGStab:  Solving for PNP, Initial residual = (0.00301334 0.00452431 8.52798e-15), Final residual = (1.94333e-26 2.96614e-26 4.91257e-26), No Iterations 103
maxResidual = 0.00452431

ExecutionTime = 16.18 s  ClockTime = 16 s

Time = 156

         Steady solver/PNP-NS Iteration      # 1
BiCGStab:  Solving for PNP, Initial residual = (0.00260031 0.00404421 7.37935e-15), Final residual = (3.07169e-26 4.68992e-26 7.78145e-26), No Iterations 104
maxResidual = 0.00404421

ExecutionTime = 16.28 s  ClockTime = 17 s

Time = 157

         Steady solver/PNP-NS Iteration      # 1
BiCGStab:  Solving for PNP, Initial residual = (0.0029167 0.00437747 8.67581e-15), Final residual = (2.979e-26 4.54689e-26 7.53085e-26), No Iterations 105
maxResidual = 0.00437747

ExecutionTime = 16.38 s  ClockTime = 17 s

Time = 158

         Steady solver/PNP-NS Iteration      # 1
BiCGStab:  Solving for PNP, Initial residual = (0.00252747 0.00393095 7.20754e-15), Final residual = (2.7455e-26 4.19045e-26 6.93773e-26), No Iterations 105
maxResidual = 0.00393095

ExecutionTime = 16.48 s  ClockTime = 17 s

Time = 159

         Steady solver/PNP-NS Iteration      # 1
BiCGStab:  Solving for PNP, Initial residual = (0.00282386 0.00423674 8.44514e-15), Final residual = (2.73503e-26 4.16801e-26 7.12422e-26), No Iterations 101
maxResidual = 0.00423674

ExecutionTime = 16.58 s  ClockTime = 17 s

Time = 160

         Steady solver/PNP-NS Iteration      # 1
BiCGStab:  Solving for PNP, Initial residual = (0.00245696 0.0038213 7.45696e-15), Final residual = (1.54786e-26 2.36241e-26 3.91551e-26), No Iterations 105
maxResidual = 0.0038213

ExecutionTime = 16.69 s  ClockTime = 17 s

Time = 161

         Steady solver/PNP-NS Iteration      # 1
BiCGStab:  Solving for PNP, Initial residual = (0.00273466 0.00410309 8.67511e-15), Final residual = (2.2641e-26 3.45575e-26 5.72217e-26), No Iterations 103
maxResidual = 0.00410309

ExecutionTime = 16.79 s  ClockTime = 17 s

Time = 162

         Steady solver/PNP-NS Iteration      # 1
BiCGStab:  Solving for PNP, Initial residual = (0.0023887 0.00371515 7.94104e-15), Final residual = (1.4187e-26 2.1646e-26 3.59117e-26), No Iterations 104
maxResidual = 0.00371515

ExecutionTime = 16.89 s  ClockTime = 17 s

Time = 163

         Steady solver/PNP-NS Iteration      # 1
BiCGStab:  Solving for PNP, Initial residual = (0.00264892 0.00397477 8.53206e-15), Final residual = (1.62289e-26 2.47705e-26 4.10128e-26), No Iterations 103
maxResidual = 0.00397477

ExecutionTime = 16.99 s  ClockTime = 17 s

Time = 164

         Steady solver/PNP-NS Iteration      # 1
BiCGStab:  Solving for PNP, Initial residual = (0.00232263 0.00361239 7.11188e-15), Final residual = (4.09057e-27 6.24502e-27 1.03346e-26), No Iterations 105
maxResidual = 0.00361239

ExecutionTime = 17.09 s  ClockTime = 17 s

Time = 165

         Steady solver/PNP-NS Iteration      # 1
BiCGStab:  Solving for PNP, Initial residual = (0.00256651 0.00385142 8.92187e-15), Final residual = (1.79765e-26 2.74381e-26 4.54459e-26), No Iterations 103
maxResidual = 0.00385142

ExecutionTime = 17.18 s  ClockTime = 17 s

Time = 166

         Steady solver/PNP-NS Iteration      # 1
BiCGStab:  Solving for PNP, Initial residual = (0.00225867 0.00351292 6.91822e-15), Final residual = (4.22497e-27 6.44858e-27 1.0681e-26), No Iterations 107
maxResidual = 0.00351292

ExecutionTime = 17.29 s  ClockTime = 18 s

Time = 167

         Steady solver/PNP-NS Iteration      # 1
BiCGStab:  Solving for PNP, Initial residual = (0.00248728 0.00373284 8.65784e-15), Final residual = (1.93048e-26 2.94652e-26 4.88059e-26), No Iterations 104
maxResidual = 0.00373284

ExecutionTime = 17.39 s  ClockTime = 18 s

Time = 168

         Steady solver/PNP-NS Iteration      # 1
BiCGStab:  Solving for PNP, Initial residual = (0.00219677 0.00341663 7.57137e-15), Final residual = (2.51683e-26 3.84142e-26 6.36029e-26), No Iterations 114
maxResidual = 0.00341663

ExecutionTime = 17.5 s  ClockTime = 18 s

Time = 169

         Steady solver/PNP-NS Iteration      # 1
BiCGStab:  Solving for PNP, Initial residual = (0.00241109 0.00361881 8.34812e-15), Final residual = (2.46178e-26 3.75747e-26 6.22341e-26), No Iterations 109
maxResidual = 0.00361881

ExecutionTime = 17.6 s  ClockTime = 18 s

Time = 170

         Steady solver/PNP-NS Iteration      # 1
BiCGStab:  Solving for PNP, Initial residual = (0.00213684 0.00332343 8.67494e-15), Final residual = (1.6097e-26 2.45729e-26 4.06911e-26), No Iterations 106
maxResidual = 0.00332343

ExecutionTime = 17.72 s  ClockTime = 18 s

Time = 171

         Steady solver/PNP-NS Iteration      # 1
BiCGStab:  Solving for PNP, Initial residual = (0.00233781 0.00350914 8.49866e-15), Final residual = (2.89765e-26 4.42268e-26 7.3254e-26), No Iterations 101
maxResidual = 0.00350914

ExecutionTime = 17.81 s  ClockTime = 18 s

Time = 172

         Steady solver/PNP-NS Iteration      # 1
BiCGStab:  Solving for PNP, Initial residual = (0.00207885 0.00323322 7.19161e-15), Final residual = (2.3087e-26 3.52501e-26 5.84389e-26), No Iterations 106
maxResidual = 0.00323322

ExecutionTime = 17.92 s  ClockTime = 18 s

Time = 173

         Steady solver/PNP-NS Iteration      # 1
BiCGStab:  Solving for PNP, Initial residual = (0.00226732 0.00340365 8.29262e-15), Final residual = (2.40405e-26 3.66935e-26 6.07681e-26), No Iterations 103
maxResidual = 0.00340365

ExecutionTime = 18.01 s  ClockTime = 18 s

Time = 174

         Steady solver/PNP-NS Iteration      # 1
BiCGStab:  Solving for PNP, Initial residual = (0.00202272 0.00314591 7.71249e-15), Final residual = (1.63266e-26 2.48414e-26 4.12334e-26), No Iterations 109
maxResidual = 0.00314591

ExecutionTime = 18.12 s  ClockTime = 18 s

Time = 175

         Steady solver/PNP-NS Iteration      # 1
BiCGStab:  Solving for PNP, Initial residual = (0.0021995 0.00330217 8.5201e-15), Final residual = (2.84642e-26 4.34461e-26 7.19323e-26), No Iterations 103
maxResidual = 0.00330217

ExecutionTime = 18.22 s  ClockTime = 19 s

Time = 176

         Steady solver/PNP-NS Iteration      # 1
BiCGStab:  Solving for PNP, Initial residual = (0.00196839 0.00306141 7.44377e-15), Final residual = (2.30843e-26 3.52334e-26 5.83737e-26), No Iterations 108
maxResidual = 0.00306141

ExecutionTime = 18.32 s  ClockTime = 19 s

Time = 177

         Steady solver/PNP-NS Iteration      # 1
BiCGStab:  Solving for PNP, Initial residual = (0.00213424 0.00320452 8.22866e-15), Final residual = (2.18178e-26 3.33008e-26 5.51367e-26), No Iterations 104
maxResidual = 0.00320452

ExecutionTime = 18.42 s  ClockTime = 19 s

Time = 178

         Steady solver/PNP-NS Iteration      # 1
BiCGStab:  Solving for PNP, Initial residual = (0.00191582 0.00297963 7.36776e-15), Final residual = (2.68938e-27 4.10476e-27 6.80564e-27), No Iterations 108
maxResidual = 0.00297963

ExecutionTime = 18.53 s  ClockTime = 19 s

Time = 179

         Steady solver/PNP-NS Iteration      # 1
BiCGStab:  Solving for PNP, Initial residual = (0.00207143 0.00311055 8.34435e-15), Final residual = (1.31831e-26 2.01213e-26 3.33198e-26), No Iterations 104
maxResidual = 0.00311055

ExecutionTime = 18.63 s  ClockTime = 19 s

Time = 180

         Steady solver/PNP-NS Iteration      # 1
BiCGStab:  Solving for PNP, Initial residual = (0.00186494 0.00290049 7.40229e-15), Final residual = (2.6611e-26 4.06165e-26 6.72994e-26), No Iterations 105
maxResidual = 0.00290049

ExecutionTime = 18.73 s  ClockTime = 19 s

Time = 181

         Steady solver/PNP-NS Iteration      # 1
BiCGStab:  Solving for PNP, Initial residual = (0.00201098 0.00302009 8.8104e-15), Final residual = (1.72413e-26 2.63163e-26 4.36815e-26), No Iterations 101
maxResidual = 0.00302009

ExecutionTime = 18.83 s  ClockTime = 19 s

Time = 182

         Steady solver/PNP-NS Iteration      # 1
BiCGStab:  Solving for PNP, Initial residual = (0.00181571 0.00282389 7.52362e-15), Final residual = (9.66035e-27 1.47456e-26 2.44452e-26), No Iterations 105
maxResidual = 0.00282389

ExecutionTime = 18.93 s  ClockTime = 19 s

Time = 183

         Steady solver/PNP-NS Iteration      # 1
BiCGStab:  Solving for PNP, Initial residual = (0.00195278 0.00293302 8.53263e-15), Final residual = (1.84432e-26 2.81453e-26 4.92844e-26), No Iterations 101
maxResidual = 0.00293302

ExecutionTime = 19.03 s  ClockTime = 19 s

Time = 184

         Steady solver/PNP-NS Iteration      # 1
BiCGStab:  Solving for PNP, Initial residual = (0.00176806 0.00274977 7.40563e-15), Final residual = (1.8545e-26 2.83054e-26 4.68688e-26), No Iterations 105
maxResidual = 0.00274977

ExecutionTime = 19.13 s  ClockTime = 20 s

Time = 185

         Steady solver/PNP-NS Iteration      # 1
BiCGStab:  Solving for PNP, Initial residual = (0.00189674 0.00284918 8.61928e-15), Final residual = (2.24007e-26 3.41915e-26 5.66235e-26), No Iterations 103
maxResidual = 0.00284918

ExecutionTime = 19.23 s  ClockTime = 20 s

Time = 186

         Steady solver/PNP-NS Iteration      # 1
BiCGStab:  Solving for PNP, Initial residual = (0.00172195 0.00267804 7.53601e-15), Final residual = (2.42514e-26 3.70139e-26 6.13092e-26), No Iterations 106
maxResidual = 0.00267804

ExecutionTime = 19.33 s  ClockTime = 20 s

Time = 187

         Steady solver/PNP-NS Iteration      # 1
BiCGStab:  Solving for PNP, Initial residual = (0.00184277 0.00276845 8.47939e-15), Final residual = (1.51371e-26 2.31039e-26 3.82855e-26), No Iterations 103
maxResidual = 0.00276845

ExecutionTime = 19.43 s  ClockTime = 20 s

Time = 188

         Steady solver/PNP-NS Iteration      # 1
BiCGStab:  Solving for PNP, Initial residual = (0.00167733 0.00260862 7.31202e-15), Final residual = (2.61784e-26 3.99697e-26 6.61606e-26), No Iterations 106
maxResidual = 0.00260862

ExecutionTime = 19.53 s  ClockTime = 20 s

Time = 189

         Steady solver/PNP-NS Iteration      # 1
BiCGStab:  Solving for PNP, Initial residual = (0.00179079 0.00269069 8.46535e-15), Final residual = (2.16001e-26 3.29686e-26 5.47176e-26), No Iterations 101
maxResidual = 0.00269069

ExecutionTime = 19.63 s  ClockTime = 20 s

Time = 190

         Steady solver/PNP-NS Iteration      # 1
BiCGStab:  Solving for PNP, Initial residual = (0.00163415 0.00254143 7.5178e-15), Final residual = (2.53521e-26 3.86948e-26 6.40979e-26), No Iterations 106
maxResidual = 0.00254143

ExecutionTime = 19.74 s  ClockTime = 20 s

Time = 191

         Steady solver/PNP-NS Iteration      # 1
BiCGStab:  Solving for PNP, Initial residual = (0.00174072 0.00261578 8.54013e-15), Final residual = (2.32648e-26 3.55096e-26 5.88024e-26), No Iterations 103
maxResidual = 0.00261578

ExecutionTime = 19.85 s  ClockTime = 20 s

Time = 192

         Steady solver/PNP-NS Iteration      # 1
BiCGStab:  Solving for PNP, Initial residual = (0.00159236 0.00247642 7.22467e-15), Final residual = (2.02169e-26 3.08573e-26 5.11007e-26), No Iterations 105
maxResidual = 0.00247642

ExecutionTime = 19.95 s  ClockTime = 20 s

Time = 193

         Steady solver/PNP-NS Iteration      # 1
BiCGStab:  Solving for PNP, Initial residual = (0.00169247 0.00254362 8.51132e-15), Final residual = (1.58442e-26 2.41832e-26 4.00554e-26), No Iterations 103
maxResidual = 0.00254362

ExecutionTime = 20.04 s  ClockTime = 20 s

Time = 194

         Steady solver/PNP-NS Iteration      # 1
BiCGStab:  Solving for PNP, Initial residual = (0.00155192 0.0024135 7.5638e-15), Final residual = (2.17241e-26 3.31574e-26 5.49299e-26), No Iterations 105
maxResidual = 0.0024135

ExecutionTime = 20.14 s  ClockTime = 21 s

Time = 195

         Steady solver/PNP-NS Iteration      # 1
BiCGStab:  Solving for PNP, Initial residual = (0.00164599 0.00247409 8.26206e-15), Final residual = (1.32605e-26 2.02398e-26 3.35481e-26), No Iterations 101
maxResidual = 0.00247409

ExecutionTime = 20.24 s  ClockTime = 21 s

Time = 196

         Steady solver/PNP-NS Iteration      # 1
BiCGStab:  Solving for PNP, Initial residual = (0.00151279 0.00235261 7.45442e-15), Final residual = (2.54896e-26 3.89047e-26 6.44357e-26), No Iterations 109
maxResidual = 0.00235261

ExecutionTime = 20.34 s  ClockTime = 21 s

Time = 197

         Steady solver/PNP-NS Iteration      # 1
BiCGStab:  Solving for PNP, Initial residual = (0.00160118 0.00240708 8.14345e-15), Final residual = (2.30314e-26 3.51531e-26 5.82625e-26), No Iterations 102
maxResidual = 0.00240708

ExecutionTime = 20.44 s  ClockTime = 21 s

Time = 198

         Steady solver/PNP-NS Iteration      # 1
BiCGStab:  Solving for PNP, Initial residual = (0.00147492 0.00229368 7.5786e-15), Final residual = (2.27572e-26 3.4731e-26 5.7557e-26), No Iterations 114
maxResidual = 0.00229368

ExecutionTime = 20.55 s  ClockTime = 21 s

Time = 199

         Steady solver/PNP-NS Iteration      # 1
BiCGStab:  Solving for PNP, Initial residual = (0.001558 0.00234249 8.18928e-15), Final residual = (2.0899e-26 3.18984e-26 5.28647e-26), No Iterations 102
maxResidual = 0.00234249

ExecutionTime = 20.65 s  ClockTime = 21 s

Time = 200

         Steady solver/PNP-NS Iteration      # 1
BiCGStab:  Solving for PNP, Initial residual = (0.00143827 0.00223665 7.3329e-15), Final residual = (3.19426e-26 4.87433e-26 8.09738e-26), No Iterations 106
maxResidual = 0.00223665

ExecutionTime = 20.76 s  ClockTime = 21 s

Time = 201

         Steady solver/PNP-NS Iteration      # 1
BiCGStab:  Solving for PNP, Initial residual = (0.00151637 0.00228024 8.60115e-15), Final residual = (2.58515e-26 3.94572e-26 6.53582e-26), No Iterations 102
maxResidual = 0.00228024

ExecutionTime = 20.86 s  ClockTime = 21 s

Time = 202

         Steady solver/PNP-NS Iteration      # 1
BiCGStab:  Solving for PNP, Initial residual = (0.0014028 0.00218146 7.36661e-15), Final residual = (1.49446e-26 2.27829e-26 3.81955e-26), No Iterations 116
maxResidual = 0.00218146

ExecutionTime = 20.97 s  ClockTime = 21 s

Time = 203

         Steady solver/PNP-NS Iteration      # 1
BiCGStab:  Solving for PNP, Initial residual = (0.00147624 0.00222022 8.28059e-15), Final residual = (9.00192e-27 1.37402e-26 2.27667e-26), No Iterations 103
maxResidual = 0.00222022

ExecutionTime = 21.07 s  ClockTime = 22 s

Time = 204

         Steady solver/PNP-NS Iteration      # 1
BiCGStab:  Solving for PNP, Initial residual = (0.00136848 0.00212805 7.17679e-15), Final residual = (1.02883e-26 1.57027e-26 2.60226e-26), No Iterations 111
maxResidual = 0.00212805

ExecutionTime = 21.18 s  ClockTime = 22 s

Time = 205

         Steady solver/PNP-NS Iteration      # 1
BiCGStab:  Solving for PNP, Initial residual = (0.00143754 0.00216235 8.31616e-15), Final residual = (2.22631e-26 3.39804e-26 5.62881e-26), No Iterations 103
maxResidual = 0.00216235

ExecutionTime = 21.28 s  ClockTime = 22 s

Time = 206

         Steady solver/PNP-NS Iteration      # 1
BiCGStab:  Solving for PNP, Initial residual = (0.00133526 0.00207636 7.30429e-15), Final residual = (2.9319e-26 4.47542e-26 7.41924e-26), No Iterations 105
maxResidual = 0.00207636

ExecutionTime = 21.38 s  ClockTime = 22 s

Time = 207

         Steady solver/PNP-NS Iteration      # 1
BiCGStab:  Solving for PNP, Initial residual = (0.00140022 0.00210654 8.32962e-15), Final residual = (7.34793e-27 1.12153e-26 1.85908e-26), No Iterations 103
maxResidual = 0.00210654

ExecutionTime = 21.48 s  ClockTime = 22 s

Time = 208

         Steady solver/PNP-NS Iteration      # 1
BiCGStab:  Solving for PNP, Initial residual = (0.00130312 0.00202633 7.35615e-15), Final residual = (1.4052e-26 2.14494e-26 3.56722e-26), No Iterations 106
maxResidual = 0.00202633

ExecutionTime = 21.59 s  ClockTime = 22 s

Time = 209

         Steady solver/PNP-NS Iteration      # 1
BiCGStab:  Solving for PNP, Initial residual = (0.00136422 0.00205273 8.27153e-15), Final residual = (2.51553e-26 3.83949e-26 6.36633e-26), No Iterations 101
maxResidual = 0.00205273

ExecutionTime = 21.68 s  ClockTime = 22 s

Time = 210

         Steady solver/PNP-NS Iteration      # 1
BiCGStab:  Solving for PNP, Initial residual = (0.00127201 0.00197792 7.28404e-15), Final residual = (2.92575e-26 4.4652e-26 7.39926e-26), No Iterations 107
maxResidual = 0.00197792

ExecutionTime = 21.79 s  ClockTime = 22 s

Time = 211

         Steady solver/PNP-NS Iteration      # 1
BiCGStab:  Solving for PNP, Initial residual = (0.0013295 0.00200081 8.25533e-15), Final residual = (2.23131e-26 3.40564e-26 5.65305e-26), No Iterations 105
maxResidual = 0.00200081

ExecutionTime = 21.89 s  ClockTime = 22 s

Time = 212

         Steady solver/PNP-NS Iteration      # 1
BiCGStab:  Solving for PNP, Initial residual = (0.0012419 0.00193106 7.28954e-15), Final residual = (9.68966e-27 1.47915e-26 2.45021e-26), No Iterations 106
maxResidual = 0.00193106

ExecutionTime = 22 s  ClockTime = 23 s

Time = 213

         Steady solver/PNP-NS Iteration      # 1
BiCGStab:  Solving for PNP, Initial residual = (0.00129601 0.00195073 8.34825e-15), Final residual = (1.09915e-26 1.67763e-26 2.78225e-26), No Iterations 104
maxResidual = 0.00195073

ExecutionTime = 22.09 s  ClockTime = 23 s

Time = 214

         Steady solver/PNP-NS Iteration      # 1
BiCGStab:  Solving for PNP, Initial residual = (0.00121276 0.0018857 7.16544e-15), Final residual = (2.29574e-26 3.50671e-26 5.82661e-26), No Iterations 104
maxResidual = 0.0018857

ExecutionTime = 22.19 s  ClockTime = 23 s

Time = 215

         Steady solver/PNP-NS Iteration      # 1
BiCGStab:  Solving for PNP, Initial residual = (0.00126369 0.00190242 8.15818e-15), Final residual = (1.9815e-26 3.02423e-26 5.01156e-26), No Iterations 102
maxResidual = 0.00190242

ExecutionTime = 22.29 s  ClockTime = 23 s

Time = 216

         Steady solver/PNP-NS Iteration      # 1
BiCGStab:  Solving for PNP, Initial residual = (0.00118455 0.0018418 7.39933e-15), Final residual = (2.35726e-26 3.59852e-26 5.95973e-26), No Iterations 107
maxResidual = 0.0018418

ExecutionTime = 22.4 s  ClockTime = 23 s

Time = 217

         Steady solver/PNP-NS Iteration      # 1
BiCGStab:  Solving for PNP, Initial residual = (0.0012325 0.00185579 8.53034e-15), Final residual = (1.57825e-26 2.40905e-26 3.99005e-26), No Iterations 102
maxResidual = 0.00185579

ExecutionTime = 22.5 s  ClockTime = 23 s

Time = 218

         Steady solver/PNP-NS Iteration      # 1
BiCGStab:  Solving for PNP, Initial residual = (0.00115725 0.00179931 7.27075e-15), Final residual = (3.10306e-26 4.73619e-26 7.84592e-26), No Iterations 103
maxResidual = 0.00179931

ExecutionTime = 22.6 s  ClockTime = 23 s

Time = 219

         Steady solver/PNP-NS Iteration      # 1
BiCGStab:  Solving for PNP, Initial residual = (0.0012024 0.0018108 7.84765e-15), Final residual = (2.01728e-26 3.07945e-26 5.10236e-26), No Iterations 102
maxResidual = 0.0018108

ExecutionTime = 22.69 s  ClockTime = 23 s

Time = 220

         Steady solver/PNP-NS Iteration      # 1
BiCGStab:  Solving for PNP, Initial residual = (0.00113082 0.00175818 7.31031e-15), Final residual = (1.6777e-26 2.56067e-26 4.24333e-26), No Iterations 105
maxResidual = 0.00175818

ExecutionTime = 22.8 s  ClockTime = 23 s

Time = 221

         Steady solver/PNP-NS Iteration      # 1
BiCGStab:  Solving for PNP, Initial residual = (0.00117335 0.00176737 7.63898e-15), Final residual = (3.12097e-26 4.76357e-26 7.89251e-26), No Iterations 101
maxResidual = 0.00176737

ExecutionTime = 22.9 s  ClockTime = 23 s

Time = 222

         Steady solver/PNP-NS Iteration      # 1
BiCGStab:  Solving for PNP, Initial residual = (0.00110524 0.00171836 7.27213e-15), Final residual = (8.70642e-27 1.32886e-26 2.20135e-26), No Iterations 106
maxResidual = 0.00171836

ExecutionTime = 23 s  ClockTime = 24 s

Time = 223

         Steady solver/PNP-NS Iteration      # 1
BiCGStab:  Solving for PNP, Initial residual = (0.0011453 0.00172544 8.11643e-15), Final residual = (2.05853e-26 3.14196e-26 5.2085e-26), No Iterations 104
maxResidual = 0.00172544

ExecutionTime = 23.1 s  ClockTime = 24 s

Time = 224

         Steady solver/PNP-NS Iteration      # 1
BiCGStab:  Solving for PNP, Initial residual = (0.00108048 0.00167982 7.39887e-15), Final residual = (2.39418e-26 3.65203e-26 6.05135e-26), No Iterations 111
maxResidual = 0.00167982

ExecutionTime = 23.21 s  ClockTime = 24 s

Time = 225

         Steady solver/PNP-NS Iteration      # 1
BiCGStab:  Solving for PNP, Initial residual = (0.00111822 0.00168497 8.07515e-15), Final residual = (1.47425e-26 2.25022e-26 3.72808e-26), No Iterations 103
maxResidual = 0.00168497

ExecutionTime = 23.31 s  ClockTime = 24 s

Time = 226

         Steady solver/PNP-NS Iteration      # 1
BiCGStab:  Solving for PNP, Initial residual = (0.00105651 0.00164251 7.4987e-15), Final residual = (1.71713e-26 2.61343e-26 4.68507e-26), No Iterations 102
maxResidual = 0.00164251

ExecutionTime = 23.4 s  ClockTime = 24 s

Time = 227

         Steady solver/PNP-NS Iteration      # 1
BiCGStab:  Solving for PNP, Initial residual = (0.00109208 0.00164589 8.72578e-15), Final residual = (1.02069e-26 1.55789e-26 2.58102e-26), No Iterations 102
maxResidual = 0.00164589

ExecutionTime = 23.5 s  ClockTime = 24 s

Time = 228

         Steady solver/PNP-NS Iteration      # 1
BiCGStab:  Solving for PNP, Initial residual = (0.0010333 0.00160639 7.217e-15), Final residual = (1.25742e-26 1.91948e-26 3.18152e-26), No Iterations 104
maxResidual = 0.00160639

ExecutionTime = 23.6 s  ClockTime = 24 s

Time = 229

         Steady solver/PNP-NS Iteration      # 1
BiCGStab:  Solving for PNP, Initial residual = (0.00106683 0.00160815 8.17183e-15), Final residual = (2.01541e-26 3.07614e-26 5.09514e-26), No Iterations 102
maxResidual = 0.00160815

ExecutionTime = 23.7 s  ClockTime = 24 s

Time = 230

         Steady solver/PNP-NS Iteration      # 1
BiCGStab:  Solving for PNP, Initial residual = (0.00101084 0.00157141 7.46099e-15), Final residual = (2.87012e-26 4.38067e-26 7.25496e-26), No Iterations 105
maxResidual = 0.00157141

ExecutionTime = 23.82 s  ClockTime = 24 s

Time = 231

         Steady solver/PNP-NS Iteration      # 1
BiCGStab:  Solving for PNP, Initial residual = (0.00104244 0.00157171 7.97275e-15), Final residual = (1.62095e-26 2.47408e-26 4.09753e-26), No Iterations 103
maxResidual = 0.00157171

ExecutionTime = 23.91 s  ClockTime = 25 s

Time = 232

         Steady solver/PNP-NS Iteration      # 1
BiCGStab:  Solving for PNP, Initial residual = (0.000989086 0.00153755 7.35886e-15), Final residual = (1.9199e-26 2.9303e-26 4.86382e-26), No Iterations 105
maxResidual = 0.00153755

ExecutionTime = 24.02 s  ClockTime = 25 s

Time = 233

         Steady solver/PNP-NS Iteration      # 1
BiCGStab:  Solving for PNP, Initial residual = (0.00101888 0.00153651 8.06263e-15), Final residual = (1.64277e-26 2.50737e-26 4.1541e-26), No Iterations 102
maxResidual = 0.00153651

ExecutionTime = 24.12 s  ClockTime = 25 s

Time = 234

         Steady solver/PNP-NS Iteration      # 1
BiCGStab:  Solving for PNP, Initial residual = (0.000968027 0.00150477 7.49491e-15), Final residual = (2.3521e-26 3.59011e-26 5.94778e-26), No Iterations 103
maxResidual = 0.00150477

ExecutionTime = 24.22 s  ClockTime = 25 s

Time = 235

         Steady solver/PNP-NS Iteration      # 1
BiCGStab:  Solving for PNP, Initial residual = (0.00099613 0.00150251 8.40087e-15), Final residual = (2.86685e-26 4.37239e-26 7.26309e-26), No Iterations 102
maxResidual = 0.00150251

ExecutionTime = 24.31 s  ClockTime = 25 s

Time = 236

         Steady solver/PNP-NS Iteration      # 1
BiCGStab:  Solving for PNP, Initial residual = (0.000947636 0.00147303 7.68987e-15), Final residual = (2.49655e-26 3.81046e-26 6.31516e-26), No Iterations 104
maxResidual = 0.00147303

ExecutionTime = 24.41 s  ClockTime = 25 s

Time = 237

         Steady solver/PNP-NS Iteration      # 1
BiCGStab:  Solving for PNP, Initial residual = (0.000974145 0.00146966 8.16969e-15), Final residual = (2.96997e-26 4.53301e-26 7.52602e-26), No Iterations 102
maxResidual = 0.00146966

ExecutionTime = 24.51 s  ClockTime = 25 s

Time = 238

         Steady solver/PNP-NS Iteration      # 1
BiCGStab:  Solving for PNP, Initial residual = (0.000927892 0.00144229 7.74154e-15), Final residual = (2.77213e-26 4.23114e-26 7.02439e-26), No Iterations 105
maxResidual = 0.00144229

ExecutionTime = 24.61 s  ClockTime = 25 s

Time = 239

         Steady solver/PNP-NS Iteration      # 1
BiCGStab:  Solving for PNP, Initial residual = (0.000952903 0.00143792 7.81078e-15), Final residual = (1.874e-26 2.8603e-26 4.74882e-26), No Iterations 102
maxResidual = 0.00143792

ExecutionTime = 24.71 s  ClockTime = 25 s

Time = 240

         Steady solver/PNP-NS Iteration      # 1
BiCGStab:  Solving for PNP, Initial residual = (0.000908773 0.00141252 7.44868e-15), Final residual = (3.14115e-26 4.79463e-26 7.95135e-26), No Iterations 102
maxResidual = 0.00141252

ExecutionTime = 24.82 s  ClockTime = 25 s

Time = 241

         Steady solver/PNP-NS Iteration      # 1
BiCGStab:  Solving for PNP, Initial residual = (0.000932374 0.00140725 8.16578e-15), Final residual = (1.71318e-26 2.61481e-26 4.33363e-26), No Iterations 104
maxResidual = 0.00140725

ExecutionTime = 24.92 s  ClockTime = 26 s

Time = 242

         Steady solver/PNP-NS Iteration      # 1
BiCGStab:  Solving for PNP, Initial residual = (0.000890258 0.0013837 7.28112e-15), Final residual = (2.57772e-26 3.93436e-26 6.52038e-26), No Iterations 104
maxResidual = 0.0013837

ExecutionTime = 25.02 s  ClockTime = 26 s

Time = 243

         Steady solver/PNP-NS Iteration      # 1
BiCGStab:  Solving for PNP, Initial residual = (0.000912534 0.00137761 7.89614e-15), Final residual = (2.03356e-26 3.1035e-26 5.14489e-26), No Iterations 101
maxResidual = 0.00137761

ExecutionTime = 25.12 s  ClockTime = 26 s

Time = 244

         Steady solver/PNP-NS Iteration      # 1
BiCGStab:  Solving for PNP, Initial residual = (0.000872327 0.00135578 7.02674e-15), Final residual = (6.53808e-27 9.97903e-27 1.65359e-26), No Iterations 104
maxResidual = 0.00135578

ExecutionTime = 25.22 s  ClockTime = 26 s

Time = 245

         Steady solver/PNP-NS Iteration      # 1
BiCGStab:  Solving for PNP, Initial residual = (0.000893356 0.00134896 7.95156e-15), Final residual = (1.4461e-26 2.20719e-26 3.66428e-26), No Iterations 102
maxResidual = 0.00134896

ExecutionTime = 25.32 s  ClockTime = 26 s

Time = 246

         Steady solver/PNP-NS Iteration      # 1
BiCGStab:  Solving for PNP, Initial residual = (0.000854961 0.00132874 7.19909e-15), Final residual = (2.67641e-26 4.08495e-26 6.7762e-26), No Iterations 104
maxResidual = 0.00132874

ExecutionTime = 25.42 s  ClockTime = 26 s

Time = 247

         Steady solver/PNP-NS Iteration      # 1
BiCGStab:  Solving for PNP, Initial residual = (0.000874816 0.00132126 7.96412e-15), Final residual = (2.0828e-26 3.17897e-26 5.27052e-26), No Iterations 102
maxResidual = 0.00132126

ExecutionTime = 25.52 s  ClockTime = 26 s

Time = 248

         Steady solver/PNP-NS Iteration      # 1
BiCGStab:  Solving for PNP, Initial residual = (0.000838139 0.00130255 7.18583e-15), Final residual = (2.12663e-26 3.24585e-26 5.38074e-26), No Iterations 105
maxResidual = 0.00130255

ExecutionTime = 25.62 s  ClockTime = 26 s

Time = 249

         Steady solver/PNP-NS Iteration      # 1
BiCGStab:  Solving for PNP, Initial residual = (0.000856891 0.00129449 8.78397e-15), Final residual = (1.41201e-26 2.15517e-26 3.57001e-26), No Iterations 103
maxResidual = 0.00129449

ExecutionTime = 25.72 s  ClockTime = 26 s

Time = 250

         Steady solver/PNP-NS Iteration      # 1
BiCGStab:  Solving for PNP, Initial residual = (0.000821846 0.00127718 7.1439e-15), Final residual = (1.69508e-26 2.58644e-26 4.29676e-26), No Iterations 104
maxResidual = 0.00127718

ExecutionTime = 25.82 s  ClockTime = 27 s

Time = 251

         Steady solver/PNP-NS Iteration      # 1
BiCGStab:  Solving for PNP, Initial residual = (0.000839558 0.0012686 7.8603e-15), Final residual = (1.49117e-26 2.27597e-26 3.77487e-26), No Iterations 103
maxResidual = 0.0012686

ExecutionTime = 25.92 s  ClockTime = 27 s

Time = 252

         Steady solver/PNP-NS Iteration      # 1
BiCGStab:  Solving for PNP, Initial residual = (0.000806062 0.00125261 7.10825e-15), Final residual = (2.58534e-26 3.94259e-26 6.55093e-26), No Iterations 103
maxResidual = 0.00125261

ExecutionTime = 26.03 s  ClockTime = 27 s

Time = 253

         Steady solver/PNP-NS Iteration      # 1
BiCGStab:  Solving for PNP, Initial residual = (0.000822796 0.00124356 8.12411e-15), Final residual = (2.61956e-26 3.99708e-26 6.66729e-26), No Iterations 102
maxResidual = 0.00124356

ExecutionTime = 26.13 s  ClockTime = 27 s

Time = 254

         Steady solver/PNP-NS Iteration      # 1
BiCGStab:  Solving for PNP, Initial residual = (0.000790771 0.0012288 7.04914e-15), Final residual = (7.09661e-27 1.08333e-26 1.7956e-26), No Iterations 104
maxResidual = 0.0012288

ExecutionTime = 26.23 s  ClockTime = 27 s

Time = 255

         Steady solver/PNP-NS Iteration      # 1
BiCGStab:  Solving for PNP, Initial residual = (0.000806584 0.00121935 8.20639e-15), Final residual = (1.34239e-26 2.04932e-26 3.39865e-26), No Iterations 102
maxResidual = 0.00121935

ExecutionTime = 26.32 s  ClockTime = 27 s

Time = 256

         Steady solver/PNP-NS Iteration      # 1
BiCGStab:  Solving for PNP, Initial residual = (0.000775956 0.00120573 7.19253e-15), Final residual = (2.52044e-26 3.83179e-26 6.85156e-26), No Iterations 106
maxResidual = 0.00120573

ExecutionTime = 26.43 s  ClockTime = 27 s

Time = 257

         Steady solver/PNP-NS Iteration      # 1
BiCGStab:  Solving for PNP, Initial residual = (0.000790902 0.00119593 8.26731e-15), Final residual = (2.46278e-26 3.75895e-26 6.22925e-26), No Iterations 102
maxResidual = 0.00119593

ExecutionTime = 26.53 s  ClockTime = 27 s

Time = 258

         Steady solver/PNP-NS Iteration      # 1
BiCGStab:  Solving for PNP, Initial residual = (0.000761603 0.00118338 7.22232e-15), Final residual = (1.98351e-26 3.02739e-26 5.02167e-26), No Iterations 104
maxResidual = 0.00118338

ExecutionTime = 26.63 s  ClockTime = 27 s

Time = 259

         Steady solver/PNP-NS Iteration      # 1
BiCGStab:  Solving for PNP, Initial residual = (0.000775731 0.00117327 7.68697e-15), Final residual = (1.12048e-26 1.71022e-26 2.84463e-26), No Iterations 104
maxResidual = 0.00117327

ExecutionTime = 26.73 s  ClockTime = 27 s

Time = 260

         Steady solver/PNP-NS Iteration      # 1
BiCGStab:  Solving for PNP, Initial residual = (0.000747694 0.00116172 7.23687e-15), Final residual = (1.14501e-26 1.74756e-26 2.89933e-26), No Iterations 103
maxResidual = 0.00116172

ExecutionTime = 26.84 s  ClockTime = 28 s

Time = 261

         Steady solver/PNP-NS Iteration      # 1
BiCGStab:  Solving for PNP, Initial residual = (0.000761053 0.00115135 7.78304e-15), Final residual = (2.28295e-26 3.48447e-26 5.78213e-26), No Iterations 100
maxResidual = 0.00115135

ExecutionTime = 26.93 s  ClockTime = 28 s

Time = 262

         Steady solver/PNP-NS Iteration      # 1
BiCGStab:  Solving for PNP, Initial residual = (0.000734217 0.00114074 7.44265e-15), Final residual = (1.99952e-26 3.04676e-26 5.09456e-26), No Iterations 104
maxResidual = 0.00114074

ExecutionTime = 27.03 s  ClockTime = 28 s

Time = 263

         Steady solver/PNP-NS Iteration      # 1
BiCGStab:  Solving for PNP, Initial residual = (0.000746851 0.00113014 7.54509e-15), Final residual = (1.77098e-26 2.70305e-26 4.48049e-26), No Iterations 102
maxResidual = 0.00113014

ExecutionTime = 27.13 s  ClockTime = 28 s

Time = 264

         Steady solver/PNP-NS Iteration      # 1
BiCGStab:  Solving for PNP, Initial residual = (0.000721156 0.0011204 7.2303e-15), Final residual = (1.61963e-26 2.47128e-26 4.10542e-26), No Iterations 103
maxResidual = 0.0011204

ExecutionTime = 27.23 s  ClockTime = 28 s

Time = 265

         Steady solver/PNP-NS Iteration      # 1
BiCGStab:  Solving for PNP, Initial residual = (0.000733106 0.00110962 7.87788e-15), Final residual = (2.48432e-26 3.79184e-26 6.29881e-26), No Iterations 100
maxResidual = 0.00110962

ExecutionTime = 27.33 s  ClockTime = 28 s

Time = 266

         Steady solver/PNP-NS Iteration      # 1
BiCGStab:  Solving for PNP, Initial residual = (0.000708498 0.00110069 7.70613e-15), Final residual = (8.84524e-27 1.35008e-26 2.23727e-26), No Iterations 104
maxResidual = 0.00110069

ExecutionTime = 27.43 s  ClockTime = 28 s

Time = 267

         Steady solver/PNP-NS Iteration      # 1
BiCGStab:  Solving for PNP, Initial residual = (0.000719804 0.00108976 7.96938e-15), Final residual = (1.38057e-26 2.10713e-26 3.49092e-26), No Iterations 102
maxResidual = 0.00108976

ExecutionTime = 27.53 s  ClockTime = 28 s

Time = 268

         Steady solver/PNP-NS Iteration      # 1
BiCGStab:  Solving for PNP, Initial residual = (0.000696229 0.00108158 6.89276e-15), Final residual = (3.14781e-26 4.80452e-26 7.96265e-26), No Iterations 102
maxResidual = 0.00108158

ExecutionTime = 27.62 s  ClockTime = 28 s

Time = 269

         Steady solver/PNP-NS Iteration      # 1
BiCGStab:  Solving for PNP, Initial residual = (0.000706927 0.00107053 7.48873e-15), Final residual = (2.32752e-26 3.55309e-26 5.91042e-26), No Iterations 102
maxResidual = 0.00107053

ExecutionTime = 27.72 s  ClockTime = 28 s

Time = 270

         Steady solver/PNP-NS Iteration      # 1
BiCGStab:  Solving for PNP, Initial residual = (0.000684336 0.00106306 6.945e-15), Final residual = (2.23441e-26 3.41018e-26 5.68535e-26), No Iterations 104
maxResidual = 0.00106306

ExecutionTime = 27.83 s  ClockTime = 29 s

Time = 271

         Steady solver/PNP-NS Iteration      # 1
BiCGStab:  Solving for PNP, Initial residual = (0.000694462 0.00105192 7.86164e-15), Final residual = (1.3282e-26 2.02719e-26 3.36011e-26), No Iterations 103
maxResidual = 0.00105192

ExecutionTime = 27.93 s  ClockTime = 29 s

Time = 272

         Steady solver/PNP-NS Iteration      # 1
BiCGStab:  Solving for PNP, Initial residual = (0.000672807 0.00104511 7.03934e-15), Final residual = (2.42338e-26 3.69871e-26 6.14182e-26), No Iterations 104
[...]
maxResidual = 6.74015e-05

ExecutionTime = 195.72 s  ClockTime = 204 s

Time = 1933

         Steady solver/PNP-NS Iteration      # 1
BiCGStab:  Solving for PNP, Initial residual = (4.67181e-05 6.73319e-05 4.46338e-15), Final residual = (1.60302e-26 2.44344e-26 4.76056e-26), No Iterations 97
maxResidual = 6.73319e-05

ExecutionTime = 195.81 s  ClockTime = 204 s

Time = 1934

         Steady solver/PNP-NS Iteration      # 1
BiCGStab:  Solving for PNP, Initial residual = (4.6672e-05 6.72624e-05 4.5192e-15), Final residual = (2.75034e-26 4.1899e-26 8.47883e-26), No Iterations 96
maxResidual = 6.72624e-05

ExecutionTime = 195.9 s  ClockTime = 204 s

Time = 1935

         Steady solver/PNP-NS Iteration      # 1
BiCGStab:  Solving for PNP, Initial residual = (4.6626e-05 6.7193e-05 4.56015e-15), Final residual = (1.88729e-26 2.8773e-26 5.49951e-26), No Iterations 96
maxResidual = 6.7193e-05

ExecutionTime = 196 s  ClockTime = 204 s

Time = 1936

         Steady solver/PNP-NS Iteration      # 1
BiCGStab:  Solving for PNP, Initial residual = (4.65801e-05 6.71238e-05 4.49236e-15), Final residual = (1.70695e-26 2.60159e-26 5.01232e-26), No Iterations 96
maxResidual = 6.71238e-05

ExecutionTime = 196.09 s  ClockTime = 204 s

Time = 1937

         Steady solver/PNP-NS Iteration      # 1
BiCGStab:  Solving for PNP, Initial residual = (4.65343e-05 6.70546e-05 4.4771e-15), Final residual = (1.39586e-26 2.12759e-26 4.13528e-26), No Iterations 97
maxResidual = 6.70546e-05

ExecutionTime = 196.19 s  ClockTime = 205 s

Time = 1938

         Steady solver/PNP-NS Iteration      # 1
BiCGStab:  Solving for PNP, Initial residual = (4.64885e-05 6.69856e-05 4.5086e-15), Final residual = (1.82052e-26 2.77558e-26 5.2807e-26), No Iterations 98
maxResidual = 6.69856e-05

ExecutionTime = 196.28 s  ClockTime = 205 s

Time = 1939

         Steady solver/PNP-NS Iteration      # 1
BiCGStab:  Solving for PNP, Initial residual = (4.64428e-05 6.69167e-05 4.4215e-15), Final residual = (2.51718e-26 3.83966e-26 7.27487e-26), No Iterations 97
maxResidual = 6.69167e-05

ExecutionTime = 196.38 s  ClockTime = 205 s

Time = 1940

         Steady solver/PNP-NS Iteration      # 1
BiCGStab:  Solving for PNP, Initial residual = (4.63972e-05 6.68479e-05 4.46405e-15), Final residual = (1.53116e-26 2.33269e-26 4.57396e-26), No Iterations 96
maxResidual = 6.68479e-05

ExecutionTime = 196.48 s  ClockTime = 205 s

Time = 1941

         Steady solver/PNP-NS Iteration      # 1
BiCGStab:  Solving for PNP, Initial residual = (4.63516e-05 6.67793e-05 4.35206e-15), Final residual = (1.91471e-26 2.91876e-26 5.84507e-26), No Iterations 96
maxResidual = 6.67793e-05

ExecutionTime = 196.58 s  ClockTime = 205 s

Time = 1942

         Steady solver/PNP-NS Iteration      # 1
BiCGStab:  Solving for PNP, Initial residual = (4.63061e-05 6.67107e-05 4.44245e-15), Final residual = (1.28358e-26 1.95555e-26 3.94647e-26), No Iterations 97
maxResidual = 6.67107e-05

ExecutionTime = 196.67 s  ClockTime = 205 s

Time = 1943

         Steady solver/PNP-NS Iteration      # 1
BiCGStab:  Solving for PNP, Initial residual = (4.62607e-05 6.66423e-05 4.43379e-15), Final residual = (2.70949e-26 4.12537e-26 8.45076e-26), No Iterations 98
maxResidual = 6.66423e-05

ExecutionTime = 196.77 s  ClockTime = 205 s

Time = 1944

         Steady solver/PNP-NS Iteration      # 1
BiCGStab:  Solving for PNP, Initial residual = (4.62154e-05 6.6574e-05 4.33337e-15), Final residual = (1.05599e-26 1.60256e-26 4.1501e-26), No Iterations 100
maxResidual = 6.6574e-05

ExecutionTime = 196.86 s  ClockTime = 205 s

Time = 1945

         Steady solver/PNP-NS Iteration      # 1
BiCGStab:  Solving for PNP, Initial residual = (4.61701e-05 6.65058e-05 4.44874e-15), Final residual = (1.56409e-26 2.38351e-26 4.73728e-26), No Iterations 98
maxResidual = 6.65058e-05

ExecutionTime = 196.96 s  ClockTime = 205 s

Time = 1946

         Steady solver/PNP-NS Iteration      # 1
BiCGStab:  Solving for PNP, Initial residual = (4.61249e-05 6.64378e-05 4.43313e-15), Final residual = (1.2809e-26 1.9522e-26 3.85849e-26), No Iterations 98
maxResidual = 6.64378e-05

ExecutionTime = 197.06 s  ClockTime = 205 s

Time = 1947

         Steady solver/PNP-NS Iteration      # 1
BiCGStab:  Solving for PNP, Initial residual = (4.60798e-05 6.63698e-05 4.33435e-15), Final residual = (8.49074e-27 1.28998e-26 2.62593e-26), No Iterations 98
maxResidual = 6.63698e-05

ExecutionTime = 197.15 s  ClockTime = 206 s

Time = 1948

         Steady solver/PNP-NS Iteration      # 1
BiCGStab:  Solving for PNP, Initial residual = (4.60347e-05 6.6302e-05 4.533e-15), Final residual = (1.76169e-26 2.68512e-26 5.24626e-26), No Iterations 97
maxResidual = 6.6302e-05

ExecutionTime = 197.24 s  ClockTime = 206 s

Time = 1949

         Steady solver/PNP-NS Iteration      # 1
BiCGStab:  Solving for PNP, Initial residual = (4.59898e-05 6.62343e-05 4.48765e-15), Final residual = (1.98355e-26 3.02137e-26 6.19735e-26), No Iterations 97
maxResidual = 6.62343e-05

ExecutionTime = 197.34 s  ClockTime = 206 s

Time = 1950

         Steady solver/PNP-NS Iteration      # 1
BiCGStab:  Solving for PNP, Initial residual = (4.59448e-05 6.61667e-05 4.59754e-15), Final residual = (1.66387e-26 2.5378e-26 4.75052e-26), No Iterations 96
maxResidual = 6.61667e-05

ExecutionTime = 197.44 s  ClockTime = 206 s

Time = 1951

         Steady solver/PNP-NS Iteration      # 1
BiCGStab:  Solving for PNP, Initial residual = (4.59e-05 6.60992e-05 4.49492e-15), Final residual = (1.26146e-26 1.92056e-26 4.06082e-26), No Iterations 98
maxResidual = 6.60992e-05

ExecutionTime = 197.54 s  ClockTime = 206 s

Time = 1952

         Steady solver/PNP-NS Iteration      # 1
BiCGStab:  Solving for PNP, Initial residual = (4.58552e-05 6.60318e-05 4.43891e-15), Final residual = (1.77628e-26 2.70915e-26 5.09523e-26), No Iterations 98
maxResidual = 6.60318e-05

ExecutionTime = 197.63 s  ClockTime = 206 s

Time = 1953

         Steady solver/PNP-NS Iteration      # 1
BiCGStab:  Solving for PNP, Initial residual = (4.58105e-05 6.59646e-05 4.39075e-15), Final residual = (1.56324e-26 2.3833e-26 4.62544e-26), No Iterations 99
maxResidual = 6.59646e-05

ExecutionTime = 197.74 s  ClockTime = 206 s

Time = 1954

         Steady solver/PNP-NS Iteration      # 1
BiCGStab:  Solving for PNP, Initial residual = (4.57659e-05 6.58974e-05 4.32004e-15), Final residual = (1.67508e-26 2.55355e-26 5.02256e-26), No Iterations 98
maxResidual = 6.58974e-05

ExecutionTime = 197.83 s  ClockTime = 206 s

Time = 1955

         Steady solver/PNP-NS Iteration      # 1
BiCGStab:  Solving for PNP, Initial residual = (4.57213e-05 6.58304e-05 4.26881e-15), Final residual = (2.00843e-26 3.06274e-26 5.84726e-26), No Iterations 96
maxResidual = 6.58304e-05

ExecutionTime = 197.93 s  ClockTime = 206 s

Time = 1956

         Steady solver/PNP-NS Iteration      # 1
BiCGStab:  Solving for PNP, Initial residual = (4.56768e-05 6.57635e-05 4.44051e-15), Final residual = (1.18632e-26 1.80852e-26 3.50104e-26), No Iterations 98
maxResidual = 6.57635e-05

ExecutionTime = 198.02 s  ClockTime = 206 s

Time = 1957

         Steady solver/PNP-NS Iteration      # 1
BiCGStab:  Solving for PNP, Initial residual = (4.56324e-05 6.56967e-05 4.29068e-15), Final residual = (1.70174e-26 2.59362e-26 5.19311e-26), No Iterations 96
maxResidual = 6.56967e-05

ExecutionTime = 198.11 s  ClockTime = 207 s

Time = 1958

         Steady solver/PNP-NS Iteration      # 1
BiCGStab:  Solving for PNP, Initial residual = (4.5588e-05 6.56301e-05 4.32014e-15), Final residual = (1.93848e-26 2.95641e-26 5.61346e-26), No Iterations 98
maxResidual = 6.56301e-05

ExecutionTime = 198.21 s  ClockTime = 207 s

Time = 1959

         Steady solver/PNP-NS Iteration      # 1
BiCGStab:  Solving for PNP, Initial residual = (4.55437e-05 6.55635e-05 4.3179e-15), Final residual = (1.32971e-26 2.02813e-26 3.8059e-26), No Iterations 96
maxResidual = 6.55635e-05

ExecutionTime = 198.3 s  ClockTime = 207 s

Time = 1960

         Steady solver/PNP-NS Iteration      # 1
BiCGStab:  Solving for PNP, Initial residual = (4.54995e-05 6.54971e-05 4.44272e-15), Final residual = (2.91869e-26 4.45149e-26 8.36228e-26), No Iterations 96
maxResidual = 6.54971e-05

ExecutionTime = 198.41 s  ClockTime = 207 s

Time = 1961

         Steady solver/PNP-NS Iteration      # 1
BiCGStab:  Solving for PNP, Initial residual = (4.54554e-05 6.54307e-05 4.33274e-15), Final residual = (1.47211e-26 2.24478e-26 4.30249e-26), No Iterations 97
maxResidual = 6.54307e-05

ExecutionTime = 198.5 s  ClockTime = 207 s

Time = 1962

         Steady solver/PNP-NS Iteration      # 1
BiCGStab:  Solving for PNP, Initial residual = (4.54113e-05 6.53645e-05 4.34741e-15), Final residual = (1.46025e-26 2.2254e-26 4.43543e-26), No Iterations 99
maxResidual = 6.53645e-05

ExecutionTime = 198.6 s  ClockTime = 207 s

Time = 1963

         Steady solver/PNP-NS Iteration      # 1
BiCGStab:  Solving for PNP, Initial residual = (4.53673e-05 6.52984e-05 4.34676e-15), Final residual = (2.26454e-26 3.45267e-26 6.57948e-26), No Iterations 96
maxResidual = 6.52984e-05

ExecutionTime = 198.69 s  ClockTime = 207 s

Time = 1964

         Steady solver/PNP-NS Iteration      # 1
BiCGStab:  Solving for PNP, Initial residual = (4.53233e-05 6.52324e-05 4.42758e-15), Final residual = (2.6667e-26 4.06681e-26 7.71763e-26), No Iterations 97
maxResidual = 6.52324e-05

ExecutionTime = 198.78 s  ClockTime = 207 s

Time = 1965

         Steady solver/PNP-NS Iteration      # 1
BiCGStab:  Solving for PNP, Initial residual = (4.52794e-05 6.51665e-05 4.48149e-15), Final residual = (2.70406e-26 4.12198e-26 8.21607e-26), No Iterations 96
maxResidual = 6.51665e-05

ExecutionTime = 198.87 s  ClockTime = 207 s

Time = 1966

         Steady solver/PNP-NS Iteration      # 1
BiCGStab:  Solving for PNP, Initial residual = (4.52356e-05 6.51008e-05 4.59841e-15), Final residual = (1.33967e-26 2.03909e-26 4.39555e-26), No Iterations 97
maxResidual = 6.51008e-05

ExecutionTime = 198.97 s  ClockTime = 207 s

Time = 1967

         Steady solver/PNP-NS Iteration      # 1
BiCGStab:  Solving for PNP, Initial residual = (4.51919e-05 6.50351e-05 4.6168e-15), Final residual = (1.7697e-26 2.69735e-26 5.18985e-26), No Iterations 98
maxResidual = 6.50351e-05

ExecutionTime = 199.07 s  ClockTime = 208 s

Time = 1968

         Steady solver/PNP-NS Iteration      # 1
BiCGStab:  Solving for PNP, Initial residual = (4.51482e-05 6.49696e-05 4.60229e-15), Final residual = (1.4211e-26 2.16763e-26 4.05539e-26), No Iterations 97
maxResidual = 6.49696e-05

ExecutionTime = 199.17 s  ClockTime = 208 s

Time = 1969

         Steady solver/PNP-NS Iteration      # 1
BiCGStab:  Solving for PNP, Initial residual = (4.51046e-05 6.49041e-05 4.59875e-15), Final residual = (2.33713e-26 3.56367e-26 6.88574e-26), No Iterations 100
maxResidual = 6.49041e-05

ExecutionTime = 199.26 s  ClockTime = 208 s

Time = 1970

         Steady solver/PNP-NS Iteration      # 1
BiCGStab:  Solving for PNP, Initial residual = (4.50611e-05 6.48388e-05 4.52197e-15), Final residual = (1.55535e-26 2.37215e-26 4.49173e-26), No Iterations 97
maxResidual = 6.48388e-05

ExecutionTime = 199.37 s  ClockTime = 208 s

Time = 1971

         Steady solver/PNP-NS Iteration      # 1
BiCGStab:  Solving for PNP, Initial residual = (4.50176e-05 6.47736e-05 4.51576e-15), Final residual = (2.72928e-26 4.16259e-26 7.87578e-26), No Iterations 98
maxResidual = 6.47736e-05

ExecutionTime = 199.47 s  ClockTime = 208 s

Time = 1972

         Steady solver/PNP-NS Iteration      # 1
BiCGStab:  Solving for PNP, Initial residual = (4.49742e-05 6.47085e-05 4.43516e-15), Final residual = (2.21934e-26 3.38123e-26 6.56947e-26), No Iterations 98
maxResidual = 6.47085e-05

ExecutionTime = 199.56 s  ClockTime = 208 s

Time = 1973

         Steady solver/PNP-NS Iteration      # 1
BiCGStab:  Solving for PNP, Initial residual = (4.49309e-05 6.46435e-05 4.51108e-15), Final residual = (2.67862e-26 4.07982e-26 8.41128e-26), No Iterations 99
maxResidual = 6.46435e-05

ExecutionTime = 199.66 s  ClockTime = 208 s

Time = 1974

         Steady solver/PNP-NS Iteration      # 1
BiCGStab:  Solving for PNP, Initial residual = (4.48876e-05 6.45786e-05 4.54038e-15), Final residual = (1.84806e-26 2.81811e-26 5.36441e-26), No Iterations 97
maxResidual = 6.45786e-05

ExecutionTime = 199.75 s  ClockTime = 208 s

Time = 1975

         Steady solver/PNP-NS Iteration      # 1
BiCGStab:  Solving for PNP, Initial residual = (4.48444e-05 6.45139e-05 4.3932e-15), Final residual = (1.11812e-26 1.70369e-26 3.37459e-26), No Iterations 99
maxResidual = 6.45139e-05

ExecutionTime = 199.84 s  ClockTime = 208 s

Time = 1976

         Steady solver/PNP-NS Iteration      # 1
BiCGStab:  Solving for PNP, Initial residual = (4.48012e-05 6.44492e-05 4.44717e-15), Final residual = (1.7034e-26 2.59673e-26 5.02232e-26), No Iterations 97
maxResidual = 6.44492e-05

ExecutionTime = 199.94 s  ClockTime = 208 s

Time = 1977

         Steady solver/PNP-NS Iteration      # 1
BiCGStab:  Solving for PNP, Initial residual = (4.47582e-05 6.43847e-05 4.47078e-15), Final residual = (1.37581e-26 2.09799e-26 4.00255e-26), No Iterations 97
maxResidual = 6.43847e-05

ExecutionTime = 200.03 s  ClockTime = 209 s

Time = 1978

         Steady solver/PNP-NS Iteration      # 1
BiCGStab:  Solving for PNP, Initial residual = (4.47152e-05 6.43202e-05 4.4501e-15), Final residual = (2.32839e-26 3.54837e-26 6.88773e-26), No Iterations 97
maxResidual = 6.43202e-05

ExecutionTime = 200.12 s  ClockTime = 209 s

Time = 1979

         Steady solver/PNP-NS Iteration      # 1
BiCGStab:  Solving for PNP, Initial residual = (4.46722e-05 6.42559e-05 4.44355e-15), Final residual = (2.16643e-26 3.30393e-26 6.2688e-26), No Iterations 97
maxResidual = 6.42559e-05

ExecutionTime = 200.22 s  ClockTime = 209 s

Time = 1980

         Steady solver/PNP-NS Iteration      # 1
BiCGStab:  Solving for PNP, Initial residual = (4.46294e-05 6.41917e-05 4.38773e-15), Final residual = (2.18605e-26 3.33308e-26 6.43738e-26), No Iterations 97
maxResidual = 6.41917e-05

ExecutionTime = 200.33 s  ClockTime = 209 s

Time = 1981

         Steady solver/PNP-NS Iteration      # 1
BiCGStab:  Solving for PNP, Initial residual = (4.45866e-05 6.41276e-05 4.4471e-15), Final residual = (2.84481e-26 4.33793e-26 8.35846e-26), No Iterations 98
maxResidual = 6.41276e-05

ExecutionTime = 200.43 s  ClockTime = 209 s

Time = 1982

         Steady solver/PNP-NS Iteration      # 1
BiCGStab:  Solving for PNP, Initial residual = (4.45438e-05 6.40636e-05 4.51677e-15), Final residual = (2.69651e-26 4.11205e-26 7.84403e-26), No Iterations 96
maxResidual = 6.40636e-05

ExecutionTime = 200.53 s  ClockTime = 209 s

Time = 1983

         Steady solver/PNP-NS Iteration      # 1
BiCGStab:  Solving for PNP, Initial residual = (4.45012e-05 6.39997e-05 4.37189e-15), Final residual = (2.63234e-26 4.01299e-26 7.80129e-26), No Iterations 97
maxResidual = 6.39997e-05

ExecutionTime = 200.62 s  ClockTime = 209 s

Time = 1984

         Steady solver/PNP-NS Iteration      # 1
BiCGStab:  Solving for PNP, Initial residual = (4.44586e-05 6.39359e-05 4.46747e-15), Final residual = (1.60608e-26 2.44278e-26 5.47357e-26), No Iterations 99
maxResidual = 6.39359e-05

ExecutionTime = 200.71 s  ClockTime = 209 s

Time = 1985

         Steady solver/PNP-NS Iteration      # 1
BiCGStab:  Solving for PNP, Initial residual = (4.4416e-05 6.38722e-05 4.45955e-15), Final residual = (2.74502e-26 4.18338e-26 8.34885e-26), No Iterations 99
maxResidual = 6.38722e-05

ExecutionTime = 200.81 s  ClockTime = 209 s

Time = 1986

         Steady solver/PNP-NS Iteration      # 1
BiCGStab:  Solving for PNP, Initial residual = (4.43735e-05 6.38087e-05 4.35692e-15), Final residual = (1.44543e-26 2.20285e-26 4.24239e-26), No Iterations 98
maxResidual = 6.38087e-05

ExecutionTime = 200.9 s  ClockTime = 209 s

Time = 1987

         Steady solver/PNP-NS Iteration      # 1
BiCGStab:  Solving for PNP, Initial residual = (4.43311e-05 6.37452e-05 4.45847e-15), Final residual = (2.11481e-26 3.21839e-26 7.03669e-26), No Iterations 97
maxResidual = 6.37452e-05

ExecutionTime = 201 s  ClockTime = 210 s

Time = 1988

         Steady solver/PNP-NS Iteration      # 1
BiCGStab:  Solving for PNP, Initial residual = (4.42888e-05 6.36818e-05 4.41232e-15), Final residual = (1.94008e-26 2.95683e-26 5.90856e-26), No Iterations 97
maxResidual = 6.36818e-05

ExecutionTime = 201.09 s  ClockTime = 210 s

Time = 1989

         Steady solver/PNP-NS Iteration      # 1
BiCGStab:  Solving for PNP, Initial residual = (4.42465e-05 6.36186e-05 4.4378e-15), Final residual = (1.41405e-26 2.15651e-26 4.09434e-26), No Iterations 97
maxResidual = 6.36186e-05

ExecutionTime = 201.19 s  ClockTime = 210 s

Time = 1990

         Steady solver/PNP-NS Iteration      # 1
BiCGStab:  Solving for PNP, Initial residual = (4.42043e-05 6.35554e-05 4.39255e-15), Final residual = (1.97705e-26 3.01491e-26 5.80036e-26), No Iterations 96
maxResidual = 6.35554e-05

ExecutionTime = 201.29 s  ClockTime = 210 s

Time = 1991

         Steady solver/PNP-NS Iteration      # 1
BiCGStab:  Solving for PNP, Initial residual = (4.41621e-05 6.34924e-05 4.46116e-15), Final residual = (2.14256e-26 3.25872e-26 7.39989e-26), No Iterations 97
maxResidual = 6.34924e-05

ExecutionTime = 201.38 s  ClockTime = 210 s

Time = 1992

         Steady solver/PNP-NS Iteration      # 1
BiCGStab:  Solving for PNP, Initial residual = (4.41201e-05 6.34295e-05 4.3974e-15), Final residual = (2.0957e-26 3.1938e-26 6.47541e-26), No Iterations 97
maxResidual = 6.34295e-05

ExecutionTime = 201.48 s  ClockTime = 210 s

Time = 1993

         Steady solver/PNP-NS Iteration      # 1
BiCGStab:  Solving for PNP, Initial residual = (4.4078e-05 6.33667e-05 4.35741e-15), Final residual = (1.95686e-26 2.97113e-26 7.40563e-26), No Iterations 97
maxResidual = 6.33667e-05

ExecutionTime = 201.58 s  ClockTime = 210 s

Time = 1994

         Steady solver/PNP-NS Iteration      # 1
BiCGStab:  Solving for PNP, Initial residual = (4.40361e-05 6.33039e-05 4.5238e-15), Final residual = (1.87665e-26 2.86074e-26 5.64166e-26), No Iterations 97
maxResidual = 6.33039e-05

ExecutionTime = 201.67 s  ClockTime = 210 s

Time = 1995

         Steady solver/PNP-NS Iteration      # 1
BiCGStab:  Solving for PNP, Initial residual = (4.39942e-05 6.32413e-05 4.53825e-15), Final residual = (2.19536e-26 3.34513e-26 6.58538e-26), No Iterations 96
maxResidual = 6.32413e-05

ExecutionTime = 201.76 s  ClockTime = 210 s

Time = 1996

         Steady solver/PNP-NS Iteration      # 1
BiCGStab:  Solving for PNP, Initial residual = (4.39524e-05 6.31788e-05 4.4797e-15), Final residual = (1.78046e-26 2.70366e-26 6.77817e-26), No Iterations 97
maxResidual = 6.31788e-05

ExecutionTime = 201.85 s  ClockTime = 210 s

Time = 1997

         Steady solver/PNP-NS Iteration      # 1
BiCGStab:  Solving for PNP, Initial residual = (4.39106e-05 6.31164e-05 4.58962e-15), Final residual = (2.59415e-26 3.95624e-26 7.54641e-26), No Iterations 96
maxResidual = 6.31164e-05

ExecutionTime = 201.95 s  ClockTime = 211 s

Time = 1998

         Steady solver/PNP-NS Iteration      # 1
BiCGStab:  Solving for PNP, Initial residual = (4.38689e-05 6.30541e-05 4.62398e-15), Final residual = (1.36095e-26 2.07332e-26 4.19226e-26), No Iterations 97
maxResidual = 6.30541e-05

ExecutionTime = 202.05 s  ClockTime = 211 s

Time = 1999

         Steady solver/PNP-NS Iteration      # 1
BiCGStab:  Solving for PNP, Initial residual = (4.38273e-05 6.29919e-05 4.63433e-15), Final residual = (2.10729e-26 3.21339e-26 6.16185e-26), No Iterations 97
maxResidual = 6.29919e-05

ExecutionTime = 202.14 s  ClockTime = 211 s

Time = 2000

         Steady solver/PNP-NS Iteration      # 1
BiCGStab:  Solving for PNP, Initial residual = (4.37857e-05 6.29299e-05 4.59055e-15), Final residual = (1.87924e-26 2.8613e-26 6.03389e-26), No Iterations 98
maxResidual = 6.29299e-05

ExecutionTime = 202.24 s  ClockTime = 211 s

End

