/*---------------------------------------------------------------------------*\
| =========                 |                                                 |
| \\      /  F ield         | foam-extend: Open Source CFD                    |
|  \\    /   O peration     | Version:     4.0                                |
|   \\  /    A nd           | Web:         http://www.foam-extend.org         |
|    \\/     M anipulation  | For copyright notice see file Copyright         |
\*---------------------------------------------------------------------------*/
Build    : 4.0-268bb07d15d8
Exec     : PNPnonDFoam
Date     : Mar 13 2024
Time     : 20:41:32
Host     : sh-Precision-7920-Tower
PID      : 5744
CtrlDict : "/media/sh/drive1/NextFoam/tutorials/Coupled/2D_example_steady_PNPnonD_analysis/2D_example_steady_PNPnonD_alpha06/system/controlDict"
Case     : /media/sh/drive1/NextFoam/tutorials/Coupled/2D_example_steady_PNPnonD_analysis/2D_example_steady_PNPnonD_alpha06
nProcs   : 1
SigFpe   : Enabling floating point exception trapping (FOAM_SIGFPE).

// * * * * * * * * * * * * * * * * * * * * * * * * * * * * * * * * * * * * * //
Create time

--> FOAM Warning : 
    From function dlLibraryTable::open(const fileName& functionLibName)
    in file db/dlLibraryTable/dlLibraryTable.C at line 124
    could not load libslipEOF.so: cannot open shared object file: No such file or directory
Create mesh for time = 0

Reading field psiE

Reading field psiI

Reading field cPlus

Reading field cMinus

Reading transportProperties

****************************************************************

Scale Parameters
****************************************************************
Average-diffusivity's value: 3.36e-09 [0 2 -1 0 0 0 0]
Time-scale's value: 0.0297619 [0 0 1 0 0 0 0]
Potential-scale's value: 0.025852 [1 2 -3 0 0 -1 0]
Velocity-scale's value: 4.73398e-05 [0 1 -1 0 0 0 0]
pressure-scale's value: 4.73398e-06 [0 2 -2 0 0 0 0]
Debye-Length's value: 9.74139e-09 [0 1 0 0 0 0 0]
Dimensionless diffusion coefficient DPlus_nonD: 0.395833
Dimensionless diffusion coefficient DMinus_nonD: 0.604167
Dimensionless Debye-Length: 0.000974139
Schmidt Number: 297.619
Reynold Number: 0.000473398
Pelec Number: 0.140892
****************************************************************
Reading field psiEGrad

Reading field phiE

Reading field DPlusphiE

Reading field DMinusphiE

Reading field phiDcPlus

Reading field phiDcMinus

Reading field netCharge

Creating field PNP


Starting time loop


Starting time loop

Time = 1

         Steady solver/PNP-NS Iteration      # 1
BiCGStab:  Solving for PNP, Initial residual = (0.450596 0.687752 0.569174), Final residual = (3.09363e-26 4.72221e-26 7.81312e-26), No Iterations 110
maxResidual = 0.687752

ExecutionTime = 0.17 s  ClockTime = 1 s

Time = 2

         Steady solver/PNP-NS Iteration      # 1
BiCGStab:  Solving for PNP, Initial residual = (0.0222453 0.0345156 4.94695e-15), Final residual = (1.77206e-26 2.7048e-26 4.47666e-26), No Iterations 106
maxResidual = 0.0345156

ExecutionTime = 0.27 s  ClockTime = 1 s

Time = 3

         Steady solver/PNP-NS Iteration      # 1
BiCGStab:  Solving for PNP, Initial residual = (0.252543 0.384869 4.1949e-14), Final residual = (1.26064e-26 1.92452e-26 3.18502e-26), No Iterations 115
maxResidual = 0.384869

ExecutionTime = 0.38 s  ClockTime = 1 s

Time = 4

         Steady solver/PNP-NS Iteration      # 1
BiCGStab:  Solving for PNP, Initial residual = (0.0218916 0.0338334 4.1955e-15), Final residual = (2.6238e-26 4.00456e-26 6.62856e-26), No Iterations 116
maxResidual = 0.0338334

ExecutionTime = 0.49 s  ClockTime = 1 s

Time = 5

         Steady solver/PNP-NS Iteration      # 1
BiCGStab:  Solving for PNP, Initial residual = (0.231539 0.354106 3.30296e-14), Final residual = (1.12802e-26 1.72229e-26 2.87673e-26), No Iterations 109
maxResidual = 0.354106

ExecutionTime = 0.59 s  ClockTime = 1 s

Time = 6

         Steady solver/PNP-NS Iteration      # 1
BiCGStab:  Solving for PNP, Initial residual = (0.0215144 0.0332604 4.60698e-15), Final residual = (8.30166e-27 1.26612e-26 2.1073e-26), No Iterations 113
maxResidual = 0.0332604

ExecutionTime = 0.7 s  ClockTime = 1 s

Time = 7

         Steady solver/PNP-NS Iteration      # 1
BiCGStab:  Solving for PNP, Initial residual = (0.201829 0.30914 3.00336e-14), Final residual = (1.8351e-26 2.80149e-26 4.63713e-26), No Iterations 117
maxResidual = 0.30914

ExecutionTime = 0.81 s  ClockTime = 1 s

Time = 8

         Steady solver/PNP-NS Iteration      # 1
BiCGStab:  Solving for PNP, Initial residual = (0.0211584 0.0327258 4.42954e-15), Final residual = (1.35772e-26 2.07227e-26 3.43038e-26), No Iterations 107
maxResidual = 0.0327258

ExecutionTime = 0.92 s  ClockTime = 1 s

Time = 9

         Steady solver/PNP-NS Iteration      # 1
BiCGStab:  Solving for PNP, Initial residual = (0.179229 0.274668 3.17021e-14), Final residual = (1.82574e-26 2.78702e-26 4.61332e-26), No Iterations 115
maxResidual = 0.274668

ExecutionTime = 1.02 s  ClockTime = 2 s

Time = 10

         Steady solver/PNP-NS Iteration      # 1
BiCGStab:  Solving for PNP, Initial residual = (0.0208191 0.0322129 4.55446e-15), Final residual = (9.89311e-27 1.51003e-26 2.49967e-26), No Iterations 109
maxResidual = 0.0322129

ExecutionTime = 1.14 s  ClockTime = 2 s

Time = 11

         Steady solver/PNP-NS Iteration      # 1
BiCGStab:  Solving for PNP, Initial residual = (0.161244 0.247134 2.75372e-14), Final residual = (2.21853e-26 3.38653e-26 5.60773e-26), No Iterations 109
maxResidual = 0.247134

ExecutionTime = 1.24 s  ClockTime = 2 s

Time = 12

         Steady solver/PNP-NS Iteration      # 1
BiCGStab:  Solving for PNP, Initial residual = (0.0204918 0.0317157 4.85765e-15), Final residual = (3.19439e-26 4.87479e-26 8.07023e-26), No Iterations 106
maxResidual = 0.0317157

ExecutionTime = 1.34 s  ClockTime = 2 s

Time = 13

         Steady solver/PNP-NS Iteration      # 1
BiCGStab:  Solving for PNP, Initial residual = (0.146487 0.224501 2.85571e-14), Final residual = (2.19537e-27 3.35244e-27 5.54866e-27), No Iterations 108
maxResidual = 0.224501

ExecutionTime = 1.45 s  ClockTime = 2 s

Time = 14

         Steady solver/PNP-NS Iteration      # 1
BiCGStab:  Solving for PNP, Initial residual = (0.0201738 0.0312312 4.71904e-15), Final residual = (4.31595e-27 6.58735e-27 1.09046e-26), No Iterations 109
maxResidual = 0.0312312

ExecutionTime = 1.55 s  ClockTime = 2 s

Time = 15

         Steady solver/PNP-NS Iteration      # 1
BiCGStab:  Solving for PNP, Initial residual = (0.134105 0.205491 2.39368e-14), Final residual = (2.06299e-26 3.14905e-26 5.21274e-26), No Iterations 107
maxResidual = 0.205491

ExecutionTime = 1.66 s  ClockTime = 2 s

Time = 16

         Steady solver/PNP-NS Iteration      # 1
BiCGStab:  Solving for PNP, Initial residual = (0.0198634 0.0307574 4.4757e-15), Final residual = (3.04506e-26 4.64751e-26 7.69369e-26), No Iterations 107
maxResidual = 0.0307574

ExecutionTime = 1.76 s  ClockTime = 2 s

Time = 17

         Steady solver/PNP-NS Iteration      # 1
BiCGStab:  Solving for PNP, Initial residual = (0.123541 0.189261 2.60779e-14), Final residual = (9.77606e-27 1.49227e-26 2.47027e-26), No Iterations 109
maxResidual = 0.189261

ExecutionTime = 1.87 s  ClockTime = 2 s

Time = 18

         Steady solver/PNP-NS Iteration      # 1
BiCGStab:  Solving for PNP, Initial residual = (0.0195596 0.0302931 4.63569e-15), Final residual = (2.10736e-26 3.2164e-26 5.32477e-26), No Iterations 104
maxResidual = 0.0302931

ExecutionTime = 1.96 s  ClockTime = 3 s

Time = 19

         Steady solver/PNP-NS Iteration      # 1
BiCGStab:  Solving for PNP, Initial residual = (0.114401 0.175215 2.19903e-14), Final residual = (1.9098e-26 2.91518e-26 4.82563e-26), No Iterations 108
maxResidual = 0.175215

ExecutionTime = 2.07 s  ClockTime = 3 s

Time = 20

         Steady solver/PNP-NS Iteration      # 1
BiCGStab:  Solving for PNP, Initial residual = (0.019262 0.0298372 4.57192e-15), Final residual = (2.30763e-26 3.52205e-26 5.83155e-26), No Iterations 107
maxResidual = 0.0298372

ExecutionTime = 2.18 s  ClockTime = 3 s

Time = 21

         Steady solver/PNP-NS Iteration      # 1
BiCGStab:  Solving for PNP, Initial residual = (0.106408 0.16293 2.26198e-14), Final residual = (2.6836e-26 4.09582e-26 6.79806e-26), No Iterations 111
maxResidual = 0.16293

ExecutionTime = 2.29 s  ClockTime = 3 s

Time = 22

         Steady solver/PNP-NS Iteration      # 1
BiCGStab:  Solving for PNP, Initial residual = (0.01897 0.0293893 4.8559e-15), Final residual = (1.433e-26 2.18717e-26 3.62076e-26), No Iterations 113
maxResidual = 0.0293893

ExecutionTime = 2.4 s  ClockTime = 3 s

Time = 23

         Steady solver/PNP-NS Iteration      # 1
BiCGStab:  Solving for PNP, Initial residual = (0.0993492 0.152081 2.53971e-14), Final residual = (2.66563e-26 4.06891e-26 6.73547e-26), No Iterations 107
maxResidual = 0.152081

ExecutionTime = 2.51 s  ClockTime = 3 s

Time = 24

         Steady solver/PNP-NS Iteration      # 1
BiCGStab:  Solving for PNP, Initial residual = (0.0186832 0.028949 4.85109e-15), Final residual = (2.35684e-26 3.5973e-26 5.9595e-26), No Iterations 106
maxResidual = 0.028949

ExecutionTime = 2.6 s  ClockTime = 3 s

Time = 25

         Steady solver/PNP-NS Iteration      # 1
BiCGStab:  Solving for PNP, Initial residual = (0.0930681 0.142427 2.05202e-14), Final residual = (1.73317e-26 2.64599e-26 4.38041e-26), No Iterations 107
maxResidual = 0.142427

ExecutionTime = 2.7 s  ClockTime = 3 s

Time = 26

         Steady solver/PNP-NS Iteration      # 1
BiCGStab:  Solving for PNP, Initial residual = (0.0184012 0.0285159 4.99043e-15), Final residual = (8.13173e-27 1.2411e-26 2.05472e-26), No Iterations 112
maxResidual = 0.0285159

ExecutionTime = 2.81 s  ClockTime = 3 s

Time = 27

         Steady solver/PNP-NS Iteration      # 1
BiCGStab:  Solving for PNP, Initial residual = (0.08744 0.133775 2.12487e-14), Final residual = (1.96775e-26 3.00416e-26 4.97278e-26), No Iterations 108
maxResidual = 0.133775

ExecutionTime = 2.91 s  ClockTime = 3 s

Time = 28

         Steady solver/PNP-NS Iteration      # 1
BiCGStab:  Solving for PNP, Initial residual = (0.0181237 0.0280894 6.09224e-15), Final residual = (2.07723e-26 3.17013e-26 5.24843e-26), No Iterations 105
maxResidual = 0.0280894

ExecutionTime = 3.02 s  ClockTime = 4 s

Time = 29

         Steady solver/PNP-NS Iteration      # 1
BiCGStab:  Solving for PNP, Initial residual = (0.0823651 0.125975 1.93476e-14), Final residual = (3.14647e-26 4.80287e-26 7.95045e-26), No Iterations 108
maxResidual = 0.125975

ExecutionTime = 3.12 s  ClockTime = 4 s

Time = 30

         Steady solver/PNP-NS Iteration      # 1
BiCGStab:  Solving for PNP, Initial residual = (0.0178504 0.0276693 5.04937e-15), Final residual = (2.78782e-26 4.25452e-26 7.04342e-26), No Iterations 105
maxResidual = 0.0276693

ExecutionTime = 3.24 s  ClockTime = 4 s

Time = 31

         Steady solver/PNP-NS Iteration      # 1
BiCGStab:  Solving for PNP, Initial residual = (0.0777656 0.118905 2.02658e-14), Final residual = (2.83924e-26 4.3339e-26 7.17509e-26), No Iterations 107
maxResidual = 0.118905

ExecutionTime = 3.34 s  ClockTime = 4 s

Time = 32

         Steady solver/PNP-NS Iteration      # 1
BiCGStab:  Solving for PNP, Initial residual = (0.0175813 0.0272554 5.11746e-15), Final residual = (1.9823e-26 3.02555e-26 5.00849e-26), No Iterations 109
maxResidual = 0.0272554

ExecutionTime = 3.45 s  ClockTime = 4 s

Time = 33

         Steady solver/PNP-NS Iteration      # 1
BiCGStab:  Solving for PNP, Initial residual = (0.0735767 0.112468 1.87807e-14), Final residual = (2.71769e-26 4.14849e-26 6.86756e-26), No Iterations 107
maxResidual = 0.112468

ExecutionTime = 3.55 s  ClockTime = 4 s

Time = 34

         Steady solver/PNP-NS Iteration      # 1
BiCGStab:  Solving for PNP, Initial residual = (0.0173161 0.0268473 5.16727e-15), Final residual = (2.32813e-26 3.5804e-26 5.90009e-26), No Iterations 111
maxResidual = 0.0268473

ExecutionTime = 3.65 s  ClockTime = 4 s

Time = 35

         Steady solver/PNP-NS Iteration      # 1
BiCGStab:  Solving for PNP, Initial residual = (0.0697451 0.10658 1.98802e-14), Final residual = (2.06546e-26 3.15277e-26 5.21875e-26), No Iterations 107
maxResidual = 0.10658

ExecutionTime = 3.76 s  ClockTime = 4 s

Time = 36

         Steady solver/PNP-NS Iteration      # 1
BiCGStab:  Solving for PNP, Initial residual = (0.0170546 0.0264448 5.23491e-15), Final residual = (3.11835e-26 4.75921e-26 7.87805e-26), No Iterations 106
maxResidual = 0.0264448

ExecutionTime = 3.86 s  ClockTime = 4 s

Time = 37

         Steady solver/PNP-NS Iteration      # 1
BiCGStab:  Solving for PNP, Initial residual = (0.0662275 0.101175 1.76311e-14), Final residual = (2.03309e-26 3.10333e-26 5.13726e-26), No Iterations 113
maxResidual = 0.101175

ExecutionTime = 3.96 s  ClockTime = 5 s

Time = 38

         Steady solver/PNP-NS Iteration      # 1
BiCGStab:  Solving for PNP, Initial residual = (0.0167969 0.0260479 5.10842e-15), Final residual = (2.83963e-26 4.34127e-26 7.18712e-26), No Iterations 106
maxResidual = 0.0260479

ExecutionTime = 4.07 s  ClockTime = 5 s

Time = 39

         Steady solver/PNP-NS Iteration      # 1
BiCGStab:  Solving for PNP, Initial residual = (0.0630033 0.0961961 1.6619e-14), Final residual = (1.45689e-26 2.22386e-26 3.68148e-26), No Iterations 113
maxResidual = 0.0961961

ExecutionTime = 4.18 s  ClockTime = 5 s

Time = 40

         Steady solver/PNP-NS Iteration      # 1
BiCGStab:  Solving for PNP, Initial residual = (0.0165427 0.0256564 5.22978e-15), Final residual = (1.0663e-26 1.6274e-26 2.69403e-26), No Iterations 106
maxResidual = 0.0256564

ExecutionTime = 4.29 s  ClockTime = 5 s

Time = 41

         Steady solver/PNP-NS Iteration      # 1
BiCGStab:  Solving for PNP, Initial residual = (0.0600222 0.0915947 1.74963e-14), Final residual = (2.83209e-26 4.32305e-26 7.15582e-26), No Iterations 107
maxResidual = 0.0915947

ExecutionTime = 4.4 s  ClockTime = 5 s

Time = 42

         Steady solver/PNP-NS Iteration      # 1
BiCGStab:  Solving for PNP, Initial residual = (0.016292 0.0252702 5.3563e-15), Final residual = (2.04067e-26 3.1224e-26 5.16121e-26), No Iterations 104
maxResidual = 0.0252702

ExecutionTime = 4.5 s  ClockTime = 5 s

Time = 43

         Steady solver/PNP-NS Iteration      # 1
BiCGStab:  Solving for PNP, Initial residual = (0.0572581 0.08733 1.68503e-14), Final residual = (6.69863e-27 1.02251e-26 1.69265e-26), No Iterations 114
maxResidual = 0.08733

ExecutionTime = 4.61 s  ClockTime = 5 s

Time = 44

         Steady solver/PNP-NS Iteration      # 1
BiCGStab:  Solving for PNP, Initial residual = (0.0160447 0.024889 5.49401e-15), Final residual = (2.20851e-26 3.37077e-26 5.57971e-26), No Iterations 108
maxResidual = 0.024889

ExecutionTime = 4.7 s  ClockTime = 5 s

Time = 45

         Steady solver/PNP-NS Iteration      # 1
BiCGStab:  Solving for PNP, Initial residual = (0.0546883 0.0833673 1.687e-14), Final residual = (2.27091e-26 3.46642e-26 5.73803e-26), No Iterations 107
maxResidual = 0.0833673

ExecutionTime = 4.8 s  ClockTime = 5 s

Time = 46

         Steady solver/PNP-NS Iteration      # 1
BiCGStab:  Solving for PNP, Initial residual = (0.0158008 0.0245129 5.55816e-15), Final residual = (1.45167e-26 2.215e-26 3.77607e-26), No Iterations 108
maxResidual = 0.0245129

ExecutionTime = 4.91 s  ClockTime = 6 s

Time = 47

         Steady solver/PNP-NS Iteration      # 1
BiCGStab:  Solving for PNP, Initial residual = (0.0522931 0.0796755 1.7356e-14), Final residual = (1.55056e-26 2.36667e-26 3.93222e-26), No Iterations 113
maxResidual = 0.0796755

ExecutionTime = 5.02 s  ClockTime = 6 s

Time = 48

         Steady solver/PNP-NS Iteration      # 1
BiCGStab:  Solving for PNP, Initial residual = (0.01556 0.0241417 5.5565e-15), Final residual = (2.50702e-26 3.82627e-26 6.33543e-26), No Iterations 105
maxResidual = 0.0241417

ExecutionTime = 5.13 s  ClockTime = 6 s

Time = 49

         Steady solver/PNP-NS Iteration      # 1
BiCGStab:  Solving for PNP, Initial residual = (0.0500553 0.0762279 1.58565e-14), Final residual = (2.19887e-26 3.35676e-26 5.55728e-26), No Iterations 107
maxResidual = 0.0762279

ExecutionTime = 5.23 s  ClockTime = 6 s

Time = 50

         Steady solver/PNP-NS Iteration      # 1
BiCGStab:  Solving for PNP, Initial residual = (0.0153225 0.0237752 5.76225e-15), Final residual = (2.96802e-26 4.52962e-26 7.49681e-26), No Iterations 105
maxResidual = 0.0237752

ExecutionTime = 5.34 s  ClockTime = 6 s

Time = 51

         Steady solver/PNP-NS Iteration      # 1
BiCGStab:  Solving for PNP, Initial residual = (0.0479605 0.073002 1.64952e-14), Final residual = (2.86907e-26 4.37993e-26 7.25002e-26), No Iterations 106
maxResidual = 0.073002

ExecutionTime = 5.44 s  ClockTime = 6 s

Time = 52

         Steady solver/PNP-NS Iteration      # 1
BiCGStab:  Solving for PNP, Initial residual = (0.0150881 0.0234135 5.6332e-15), Final residual = (1.12045e-26 1.70987e-26 2.83021e-26), No Iterations 107
maxResidual = 0.0234135

ExecutionTime = 5.55 s  ClockTime = 6 s

Time = 53

         Steady solver/PNP-NS Iteration      # 1
BiCGStab:  Solving for PNP, Initial residual = (0.0459956 0.0699776 1.64248e-14), Final residual = (2.081e-26 3.17683e-26 5.2595e-26), No Iterations 105
maxResidual = 0.0699776

ExecutionTime = 5.65 s  ClockTime = 6 s

Time = 54

         Steady solver/PNP-NS Iteration      # 1
BiCGStab:  Solving for PNP, Initial residual = (0.0148568 0.0230565 5.75008e-15), Final residual = (1.32212e-26 2.02515e-26 3.46885e-26), No Iterations 106
maxResidual = 0.0230565

ExecutionTime = 5.75 s  ClockTime = 6 s

Time = 55

         Steady solver/PNP-NS Iteration      # 1
BiCGStab:  Solving for PNP, Initial residual = (0.044149 0.0671366 1.57545e-14), Final residual = (2.12536e-26 3.24427e-26 5.37344e-26), No Iterations 107
maxResidual = 0.0671366

ExecutionTime = 5.85 s  ClockTime = 7 s

Time = 56

         Steady solver/PNP-NS Iteration      # 1
BiCGStab:  Solving for PNP, Initial residual = (0.0146284 0.022704 5.95789e-15), Final residual = (1.8259e-26 2.78661e-26 4.61279e-26), No Iterations 108
maxResidual = 0.022704

ExecutionTime = 5.96 s  ClockTime = 7 s

Time = 57

         Steady solver/PNP-NS Iteration      # 1
BiCGStab:  Solving for PNP, Initial residual = (0.0424107 0.0644633 1.55785e-14), Final residual = (2.89172e-26 4.414e-26 7.33064e-26), No Iterations 106
maxResidual = 0.0644633

ExecutionTime = 6.06 s  ClockTime = 7 s

Time = 58

         Steady solver/PNP-NS Iteration      # 1
BiCGStab:  Solving for PNP, Initial residual = (0.014403 0.0223558 5.88618e-15), Final residual = (3.14764e-26 4.80383e-26 7.95393e-26), No Iterations 108
maxResidual = 0.0223558

ExecutionTime = 6.17 s  ClockTime = 7 s

Time = 59

         Steady solver/PNP-NS Iteration      # 1
BiCGStab:  Solving for PNP, Initial residual = (0.0407712 0.0619432 1.57183e-14), Final residual = (2.66824e-26 4.0728e-26 6.74012e-26), No Iterations 107
maxResidual = 0.0619432

ExecutionTime = 6.27 s  ClockTime = 7 s

Time = 60

         Steady solver/PNP-NS Iteration      # 1
BiCGStab:  Solving for PNP, Initial residual = (0.0141801 0.0220111 6.0032e-15), Final residual = (1.27525e-26 1.94571e-26 3.2234e-26), No Iterations 107
maxResidual = 0.0220111

ExecutionTime = 6.38 s  ClockTime = 7 s

Time = 61

         Steady solver/PNP-NS Iteration      # 1
BiCGStab:  Solving for PNP, Initial residual = (0.039219 0.0595589 1.48679e-14), Final residual = (1.34136e-26 2.04745e-26 3.38825e-26), No Iterations 107
maxResidual = 0.0595589

ExecutionTime = 6.49 s  ClockTime = 7 s

Time = 62

         Steady solver/PNP-NS Iteration      # 1
BiCGStab:  Solving for PNP, Initial residual = (0.0139595 0.0216699 6.01405e-15), Final residual = (2.21846e-26 3.38654e-26 5.61131e-26), No Iterations 108
maxResidual = 0.0216699

ExecutionTime = 6.59 s  ClockTime = 7 s

Time = 63

         Steady solver/PNP-NS Iteration      # 1
BiCGStab:  Solving for PNP, Initial residual = (0.0377478 0.0573004 1.57559e-14), Final residual = (2.39887e-26 3.66168e-26 6.06018e-26), No Iterations 107
maxResidual = 0.0573004

ExecutionTime = 6.7 s  ClockTime = 7 s

Time = 64

         Steady solver/PNP-NS Iteration      # 1
BiCGStab:  Solving for PNP, Initial residual = (0.0137415 0.0213325 5.99206e-15), Final residual = (2.56429e-26 3.91394e-26 6.479e-26), No Iterations 109
maxResidual = 0.0213325

ExecutionTime = 6.8 s  ClockTime = 7 s

Time = 65

         Steady solver/PNP-NS Iteration      # 1
BiCGStab:  Solving for PNP, Initial residual = (0.0363522 0.0551588 1.53382e-14), Final residual = (9.98628e-27 1.52501e-26 2.56863e-26), No Iterations 107
maxResidual = 0.0551588

ExecutionTime = 6.9 s  ClockTime = 8 s

Time = 66

         Steady solver/PNP-NS Iteration      # 1
BiCGStab:  Solving for PNP, Initial residual = (0.0135259 0.0209988 6.04393e-15), Final residual = (2.43073e-26 3.70997e-26 6.14178e-26), No Iterations 115
maxResidual = 0.0209988

ExecutionTime = 7.01 s  ClockTime = 8 s

Time = 67

         Steady solver/PNP-NS Iteration      # 1
BiCGStab:  Solving for PNP, Initial residual = (0.035027 0.0531262 1.5301e-14), Final residual = (2.24163e-26 3.42172e-26 5.66474e-26), No Iterations 105
maxResidual = 0.0531262

ExecutionTime = 7.11 s  ClockTime = 8 s

Time = 68

         Steady solver/PNP-NS Iteration      # 1
BiCGStab:  Solving for PNP, Initial residual = (0.0133127 0.0206689 6.09828e-15), Final residual = (1.56454e-26 2.38788e-26 3.95269e-26), No Iterations 106
maxResidual = 0.0206689

ExecutionTime = 7.22 s  ClockTime = 8 s

Time = 69

         Steady solver/PNP-NS Iteration      # 1
BiCGStab:  Solving for PNP, Initial residual = (0.0337676 0.0511953 1.51493e-14), Final residual = (2.78068e-26 4.24447e-26 7.02382e-26), No Iterations 105
maxResidual = 0.0511953

ExecutionTime = 7.32 s  ClockTime = 8 s

Time = 70

         Steady solver/PNP-NS Iteration      # 1
BiCGStab:  Solving for PNP, Initial residual = (0.0131021 0.0203428 6.25957e-15), Final residual = (2.86843e-26 4.37633e-26 7.24414e-26), No Iterations 110
maxResidual = 0.0203428

ExecutionTime = 7.43 s  ClockTime = 8 s

Time = 71

         Steady solver/PNP-NS Iteration      # 1
BiCGStab:  Solving for PNP, Initial residual = (0.0325697 0.0493595 1.46087e-14), Final residual = (2.14699e-26 3.27715e-26 5.42436e-26), No Iterations 108
maxResidual = 0.0493595

ExecutionTime = 7.53 s  ClockTime = 8 s

Time = 72

         Steady solver/PNP-NS Iteration      # 1
BiCGStab:  Solving for PNP, Initial residual = (0.0128939 0.0200205 6.22475e-15), Final residual = (1.88832e-26 2.8816e-26 4.76966e-26), No Iterations 107
maxResidual = 0.0200205

ExecutionTime = 7.64 s  ClockTime = 8 s

Time = 73

         Steady solver/PNP-NS Iteration      # 1
BiCGStab:  Solving for PNP, Initial residual = (0.0314294 0.0476125 1.48052e-14), Final residual = (2.91676e-26 4.45212e-26 7.36979e-26), No Iterations 105
maxResidual = 0.0476125

ExecutionTime = 7.74 s  ClockTime = 8 s

Time = 74

         Steady solver/PNP-NS Iteration      # 1
BiCGStab:  Solving for PNP, Initial residual = (0.0126882 0.0197021 6.30734e-15), Final residual = (1.63332e-26 2.48644e-26 4.56277e-26), No Iterations 107
maxResidual = 0.0197021

ExecutionTime = 7.85 s  ClockTime = 9 s

Time = 75

         Steady solver/PNP-NS Iteration      # 1
BiCGStab:  Solving for PNP, Initial residual = (0.030343 0.0459488 1.44844e-14), Final residual = (2.86901e-26 4.37942e-26 7.25016e-26), No Iterations 106
maxResidual = 0.0459488

ExecutionTime = 7.95 s  ClockTime = 9 s

Time = 76

         Steady solver/PNP-NS Iteration      # 1
BiCGStab:  Solving for PNP, Initial residual = (0.0124851 0.0193875 6.46766e-15), Final residual = (2.37374e-26 3.62302e-26 6.00411e-26), No Iterations 109
maxResidual = 0.0193875

ExecutionTime = 8.05 s  ClockTime = 9 s

Time = 77

         Steady solver/PNP-NS Iteration      # 1
BiCGStab:  Solving for PNP, Initial residual = (0.0293072 0.0443631 1.40984e-14), Final residual = (1.65682e-26 2.52906e-26 4.18701e-26), No Iterations 107
maxResidual = 0.0443631

ExecutionTime = 8.15 s  ClockTime = 9 s

Time = 78

         Steady solver/PNP-NS Iteration      # 1
BiCGStab:  Solving for PNP, Initial residual = (0.0122844 0.019077 6.53437e-15), Final residual = (3.00153e-26 4.58028e-26 7.57904e-26), No Iterations 112
maxResidual = 0.019077

ExecutionTime = 8.26 s  ClockTime = 9 s

Time = 79

         Steady solver/PNP-NS Iteration      # 1
BiCGStab:  Solving for PNP, Initial residual = (0.0283191 0.0428507 1.35874e-14), Final residual = (2.17581e-26 3.32105e-26 5.50048e-26), No Iterations 106
maxResidual = 0.0428507

ExecutionTime = 8.36 s  ClockTime = 9 s

Time = 80

         Steady solver/PNP-NS Iteration      # 1
BiCGStab:  Solving for PNP, Initial residual = (0.0120863 0.0187705 6.5116e-15), Final residual = (3.18795e-26 4.86557e-26 8.05383e-26), No Iterations 108
maxResidual = 0.0187705

ExecutionTime = 8.48 s  ClockTime = 9 s

Time = 81

         Steady solver/PNP-NS Iteration      # 1
BiCGStab:  Solving for PNP, Initial residual = (0.0273758 0.0414072 1.39879e-14), Final residual = (1.55589e-26 2.37498e-26 3.93114e-26), No Iterations 106
maxResidual = 0.0414072

ExecutionTime = 8.58 s  ClockTime = 9 s

Time = 82

         Steady solver/PNP-NS Iteration      # 1
BiCGStab:  Solving for PNP, Initial residual = (0.0118907 0.0184678 6.57106e-15), Final residual = (1.41573e-26 2.16076e-26 3.5771e-26), No Iterations 108
maxResidual = 0.0184678

ExecutionTime = 8.68 s  ClockTime = 9 s

Time = 83

         Steady solver/PNP-NS Iteration      # 1
BiCGStab:  Solving for PNP, Initial residual = (0.0264745 0.0400291 1.34998e-14), Final residual = (1.72042e-26 2.6265e-26 4.3505e-26), No Iterations 107
maxResidual = 0.0400291

ExecutionTime = 8.79 s  ClockTime = 10 s

Time = 84

         Steady solver/PNP-NS Iteration      # 1
BiCGStab:  Solving for PNP, Initial residual = (0.0116978 0.0181691 1.1925e-14), Final residual = (1.74633e-26 2.66534e-26 4.41368e-26), No Iterations 112
maxResidual = 0.0181691

ExecutionTime = 8.89 s  ClockTime = 10 s

Time = 85

         Steady solver/PNP-NS Iteration      # 1
BiCGStab:  Solving for PNP, Initial residual = (0.0256129 0.0387121 1.35434e-14), Final residual = (3.05973e-26 4.67065e-26 7.73844e-26), No Iterations 106
maxResidual = 0.0387121

ExecutionTime = 9 s  ClockTime = 10 s

Time = 86

         Steady solver/PNP-NS Iteration      # 1
BiCGStab:  Solving for PNP, Initial residual = (0.0115074 0.0178743 6.78073e-15), Final residual = (2.70283e-26 4.12605e-26 6.83628e-26), No Iterations 113
maxResidual = 0.0178743

ExecutionTime = 9.11 s  ClockTime = 10 s

Time = 87

         Steady solver/PNP-NS Iteration      # 1
BiCGStab:  Solving for PNP, Initial residual = (0.0247885 0.0374525 1.35132e-14), Final residual = (2.20865e-26 3.37133e-26 5.57779e-26), No Iterations 107
maxResidual = 0.0374525

ExecutionTime = 9.21 s  ClockTime = 10 s

Time = 88

         Steady solver/PNP-NS Iteration      # 1
BiCGStab:  Solving for PNP, Initial residual = (0.0113196 0.0175833 6.58092e-15), Final residual = (2.90278e-26 4.43028e-26 7.33296e-26), No Iterations 105
maxResidual = 0.0175833

ExecutionTime = 9.31 s  ClockTime = 10 s

Time = 89

         Steady solver/PNP-NS Iteration      # 1
BiCGStab:  Solving for PNP, Initial residual = (0.0239994 0.0362472 1.32224e-14), Final residual = (2.00746e-26 3.06424e-26 5.07151e-26), No Iterations 106
maxResidual = 0.0362472

ExecutionTime = 9.41 s  ClockTime = 10 s

Time = 90

         Steady solver/PNP-NS Iteration      # 1
BiCGStab:  Solving for PNP, Initial residual = (0.0111342 0.0172963 6.82378e-15), Final residual = (2.74662e-26 4.19036e-26 6.9364e-26), No Iterations 107
maxResidual = 0.0172963

ExecutionTime = 9.53 s  ClockTime = 10 s

Time = 91

         Steady solver/PNP-NS Iteration      # 1
BiCGStab:  Solving for PNP, Initial residual = (0.0232435 0.0350932 1.29515e-14), Final residual = (1.99119e-26 3.0395e-26 5.02964e-26), No Iterations 106
maxResidual = 0.0350932

ExecutionTime = 9.63 s  ClockTime = 10 s

Time = 92

         Steady solver/PNP-NS Iteration      # 1
BiCGStab:  Solving for PNP, Initial residual = (0.0109514 0.0170131 6.6832e-15), Final residual = (1.31529e-26 2.00747e-26 3.32148e-26), No Iterations 114
maxResidual = 0.0170131

ExecutionTime = 9.74 s  ClockTime = 10 s

Time = 93

         Steady solver/PNP-NS Iteration      # 1
BiCGStab:  Solving for PNP, Initial residual = (0.0225191 0.0339875 1.32114e-14), Final residual = (2.88241e-26 4.39963e-26 7.29908e-26), No Iterations 107
maxResidual = 0.0339875

ExecutionTime = 9.85 s  ClockTime = 11 s

Time = 94

         Steady solver/PNP-NS Iteration      # 1
BiCGStab:  Solving for PNP, Initial residual = (0.0107711 0.0167339 6.68414e-15), Final residual = (1.8053e-26 2.75531e-26 4.55898e-26), No Iterations 105
maxResidual = 0.0167339

ExecutionTime = 9.94 s  ClockTime = 11 s

Time = 95

         Steady solver/PNP-NS Iteration      # 1
BiCGStab:  Solving for PNP, Initial residual = (0.0218245 0.0329276 1.28891e-14), Final residual = (2.71323e-26 4.14148e-26 6.851e-26), No Iterations 106
maxResidual = 0.0329276

ExecutionTime = 10.05 s  ClockTime = 11 s

Time = 96

         Steady solver/PNP-NS Iteration      # 1
BiCGStab:  Solving for PNP, Initial residual = (0.0105933 0.0164585 6.70727e-15), Final residual = (2.83264e-26 4.32343e-26 7.16518e-26), No Iterations 105
maxResidual = 0.0164585

ExecutionTime = 10.15 s  ClockTime = 11 s

Time = 97

         Steady solver/PNP-NS Iteration      # 1
BiCGStab:  Solving for PNP, Initial residual = (0.021158 0.0319111 1.34492e-14), Final residual = (1.45362e-26 2.21878e-26 3.67141e-26), No Iterations 106
maxResidual = 0.0319111

ExecutionTime = 10.25 s  ClockTime = 11 s

Time = 98

         Steady solver/PNP-NS Iteration      # 1
BiCGStab:  Solving for PNP, Initial residual = (0.010418 0.0161869 6.84312e-15), Final residual = (2.48489e-26 3.79275e-26 6.27799e-26), No Iterations 107
maxResidual = 0.0161869

ExecutionTime = 10.35 s  ClockTime = 11 s

Time = 99

         Steady solver/PNP-NS Iteration      # 1
BiCGStab:  Solving for PNP, Initial residual = (0.0205182 0.0309357 1.32926e-14), Final residual = (1.39825e-26 2.13431e-26 3.53281e-26), No Iterations 108
maxResidual = 0.0309357

ExecutionTime = 10.46 s  ClockTime = 11 s

Time = 100

         Steady solver/PNP-NS Iteration      # 1
BiCGStab:  Solving for PNP, Initial residual = (0.0102452 0.0159192 6.83992e-15), Final residual = (2.26893e-26 3.4634e-26 5.73013e-26), No Iterations 113
maxResidual = 0.0159192

ExecutionTime = 10.57 s  ClockTime = 11 s

Time = 101

         Steady solver/PNP-NS Iteration      # 1
BiCGStab:  Solving for PNP, Initial residual = (0.0199038 0.0299992 1.27063e-14), Final residual = (3.13817e-26 4.79003e-26 7.93823e-26), No Iterations 110
maxResidual = 0.0299992

ExecutionTime = 10.68 s  ClockTime = 11 s

Time = 102

         Steady solver/PNP-NS Iteration      # 1
BiCGStab:  Solving for PNP, Initial residual = (0.0100749 0.0156553 6.73444e-15), Final residual = (1.62071e-26 2.47094e-26 4.09985e-26), No Iterations 107
maxResidual = 0.0156553

ExecutionTime = 10.79 s  ClockTime = 12 s

Time = 103

         Steady solver/PNP-NS Iteration      # 1
BiCGStab:  Solving for PNP, Initial residual = (0.0193134 0.0290996 1.24377e-14), Final residual = (2.40585e-26 3.67248e-26 6.08526e-26), No Iterations 107
maxResidual = 0.0290996

ExecutionTime = 10.9 s  ClockTime = 12 s

Time = 104

         Steady solver/PNP-NS Iteration      # 1
BiCGStab:  Solving for PNP, Initial residual = (0.00990699 0.0153952 6.83084e-15), Final residual = (2.47929e-26 3.78395e-26 6.27696e-26), No Iterations 107
maxResidual = 0.0153952

ExecutionTime = 11 s  ClockTime = 12 s

Time = 105

         Steady solver/PNP-NS Iteration      # 1
BiCGStab:  Solving for PNP, Initial residual = (0.0187459 0.0282352 1.23247e-14), Final residual = (2.05915e-26 3.14314e-26 5.20572e-26), No Iterations 107
maxResidual = 0.0282352

ExecutionTime = 11.1 s  ClockTime = 12 s

Time = 106

         Steady solver/PNP-NS Iteration      # 1
BiCGStab:  Solving for PNP, Initial residual = (0.00974157 0.0151389 7.14081e-15), Final residual = (1.58291e-26 2.4154e-26 4.01254e-26), No Iterations 108
maxResidual = 0.0151389

ExecutionTime = 11.21 s  ClockTime = 12 s

Time = 107

         Steady solver/PNP-NS Iteration      # 1
BiCGStab:  Solving for PNP, Initial residual = (0.0182 0.0274041 1.29226e-14), Final residual = (2.23156e-26 3.40614e-26 5.64988e-26), No Iterations 114
maxResidual = 0.0274041

ExecutionTime = 11.33 s  ClockTime = 12 s

Time = 108

         Steady solver/PNP-NS Iteration      # 1
BiCGStab:  Solving for PNP, Initial residual = (0.00957858 0.0148864 6.84434e-15), Final residual = (1.45865e-26 2.2262e-26 3.6882e-26), No Iterations 107
maxResidual = 0.0148864

ExecutionTime = 11.44 s  ClockTime = 12 s

Time = 109

         Steady solver/PNP-NS Iteration      # 1
BiCGStab:  Solving for PNP, Initial residual = (0.0176748 0.0266047 1.31499e-14), Final residual = (3.68063e-27 5.61782e-27 9.36602e-27), No Iterations 114
maxResidual = 0.0266047

ExecutionTime = 11.54 s  ClockTime = 12 s

Time = 110

         Steady solver/PNP-NS Iteration      # 1
BiCGStab:  Solving for PNP, Initial residual = (0.00941802 0.0146376 6.84182e-15), Final residual = (1.63353e-26 2.49221e-26 4.14109e-26), No Iterations 105
maxResidual = 0.0146376

ExecutionTime = 11.65 s  ClockTime = 12 s

Time = 111

         Steady solver/PNP-NS Iteration      # 1
BiCGStab:  Solving for PNP, Initial residual = (0.0171693 0.0258354 1.19404e-14), Final residual = (1.23403e-26 1.8836e-26 3.11813e-26), No Iterations 106
maxResidual = 0.0258354

ExecutionTime = 11.76 s  ClockTime = 13 s

Time = 112

         Steady solver/PNP-NS Iteration      # 1
BiCGStab:  Solving for PNP, Initial residual = (0.00925987 0.0143926 7.14093e-15), Final residual = (2.63921e-26 4.02812e-26 6.67035e-26), No Iterations 109
maxResidual = 0.0143926

ExecutionTime = 11.86 s  ClockTime = 13 s

Time = 113

         Steady solver/PNP-NS Iteration      # 1
BiCGStab:  Solving for PNP, Initial residual = (0.0166824 0.0250949 1.27532e-14), Final residual = (1.83588e-26 2.80223e-26 4.63726e-26), No Iterations 112
maxResidual = 0.0250949

ExecutionTime = 11.96 s  ClockTime = 13 s

Time = 114

         Steady solver/PNP-NS Iteration      # 1
BiCGStab:  Solving for PNP, Initial residual = (0.0091041 0.0141512 6.96729e-15), Final residual = (1.74569e-26 2.66397e-26 4.41447e-26), No Iterations 105
maxResidual = 0.0141512

ExecutionTime = 12.07 s  ClockTime = 13 s

Time = 115

         Steady solver/PNP-NS Iteration      # 1
BiCGStab:  Solving for PNP, Initial residual = (0.0162134 0.0243817 1.29231e-14), Final residual = (2.61847e-26 3.99676e-26 6.61594e-26), No Iterations 107
maxResidual = 0.0243817

ExecutionTime = 12.17 s  ClockTime = 13 s

Time = 116

         Steady solver/PNP-NS Iteration      # 1
BiCGStab:  Solving for PNP, Initial residual = (0.00895071 0.0139135 7.04751e-15), Final residual = (1.21697e-26 1.85731e-26 3.09527e-26), No Iterations 106
maxResidual = 0.0139135

ExecutionTime = 12.27 s  ClockTime = 13 s

Time = 117

         Steady solver/PNP-NS Iteration      # 1
BiCGStab:  Solving for PNP, Initial residual = (0.0157614 0.0236946 1.23413e-14), Final residual = (2.87103e-26 4.38218e-26 7.26659e-26), No Iterations 105
maxResidual = 0.0236946

ExecutionTime = 12.37 s  ClockTime = 13 s

Time = 118

         Steady solver/PNP-NS Iteration      # 1
BiCGStab:  Solving for PNP, Initial residual = (0.00879968 0.0136795 7.24586e-15), Final residual = (2.2355e-26 3.41199e-26 5.64651e-26), No Iterations 109
maxResidual = 0.0136795

ExecutionTime = 12.48 s  ClockTime = 13 s

Time = 119

         Steady solver/PNP-NS Iteration      # 1
BiCGStab:  Solving for PNP, Initial residual = (0.0153256 0.0230324 1.23803e-14), Final residual = (1.54901e-26 2.3644e-26 3.92045e-26), No Iterations 107
maxResidual = 0.0230324

ExecutionTime = 12.59 s  ClockTime = 13 s

Time = 120

         Steady solver/PNP-NS Iteration      # 1
BiCGStab:  Solving for PNP, Initial residual = (0.00865099 0.013449 7.17968e-15), Final residual = (1.95634e-26 2.98567e-26 4.94951e-26), No Iterations 108
maxResidual = 0.013449

ExecutionTime = 12.69 s  ClockTime = 14 s

Time = 121

         Steady solver/PNP-NS Iteration      # 1
BiCGStab:  Solving for PNP, Initial residual = (0.0149053 0.0223939 1.20455e-14), Final residual = (2.3146e-26 3.53193e-26 5.99029e-26), No Iterations 105
maxResidual = 0.0223939

ExecutionTime = 12.8 s  ClockTime = 14 s

Time = 122

         Steady solver/PNP-NS Iteration      # 1
BiCGStab:  Solving for PNP, Initial residual = (0.00850461 0.0132222 7.01562e-15), Final residual = (1.77661e-26 2.71167e-26 4.48814e-26), No Iterations 107
maxResidual = 0.0132222

ExecutionTime = 12.9 s  ClockTime = 14 s

Time = 123

         Steady solver/PNP-NS Iteration      # 1
BiCGStab:  Solving for PNP, Initial residual = (0.0144998 0.021778 1.24062e-14), Final residual = (2.65822e-26 4.05738e-26 6.74078e-26), No Iterations 106
maxResidual = 0.021778

ExecutionTime = 13 s  ClockTime = 14 s

Time = 124

         Steady solver/PNP-NS Iteration      # 1
BiCGStab:  Solving for PNP, Initial residual = (0.00836053 0.0129988 7.42537e-15), Final residual = (2.0147e-26 3.07477e-26 5.12338e-26), No Iterations 115
maxResidual = 0.0129988

ExecutionTime = 13.12 s  ClockTime = 14 s

Time = 125

         Steady solver/PNP-NS Iteration      # 1
BiCGStab:  Solving for PNP, Initial residual = (0.0141084 0.0211838 1.23366e-14), Final residual = (2.00436e-26 3.0595e-26 5.07565e-26), No Iterations 107
maxResidual = 0.0211838

ExecutionTime = 13.22 s  ClockTime = 14 s

Time = 126

         Steady solver/PNP-NS Iteration      # 1
BiCGStab:  Solving for PNP, Initial residual = (0.00821873 0.0127791 7.31425e-15), Final residual = (1.27276e-26 1.94258e-26 3.21925e-26), No Iterations 106
maxResidual = 0.0127791

ExecutionTime = 13.32 s  ClockTime = 14 s

Time = 127

         Steady solver/PNP-NS Iteration      # 1
BiCGStab:  Solving for PNP, Initial residual = (0.0137305 0.0206103 1.23097e-14), Final residual = (1.96261e-26 2.99561e-26 4.97211e-26), No Iterations 107
maxResidual = 0.0206103

ExecutionTime = 13.42 s  ClockTime = 14 s

Time = 128

         Steady solver/PNP-NS Iteration      # 1
BiCGStab:  Solving for PNP, Initial residual = (0.00807918 0.0125628 7.08853e-15), Final residual = (1.10335e-26 1.68381e-26 2.7928e-26), No Iterations 107
maxResidual = 0.0125628

ExecutionTime = 13.53 s  ClockTime = 14 s

Time = 129

         Steady solver/PNP-NS Iteration      # 1
BiCGStab:  Solving for PNP, Initial residual = (0.0133655 0.0200566 1.19199e-14), Final residual = (2.49801e-26 3.81372e-26 6.5328e-26), No Iterations 112
maxResidual = 0.0200566

ExecutionTime = 13.63 s  ClockTime = 14 s

Time = 130

         Steady solver/PNP-NS Iteration      # 1
BiCGStab:  Solving for PNP, Initial residual = (0.00794187 0.0123499 7.43369e-15), Final residual = (1.98437e-26 3.02879e-26 5.01632e-26), No Iterations 114
maxResidual = 0.0123499

ExecutionTime = 13.75 s  ClockTime = 15 s

Time = 131

         Steady solver/PNP-NS Iteration      # 1
BiCGStab:  Solving for PNP, Initial residual = (0.0130129 0.0195219 1.15602e-14), Final residual = (2.30111e-26 3.51234e-26 5.81509e-26), No Iterations 106
maxResidual = 0.0195219

ExecutionTime = 13.86 s  ClockTime = 15 s

Time = 132

         Steady solver/PNP-NS Iteration      # 1
BiCGStab:  Solving for PNP, Initial residual = (0.00780677 0.0121405 7.30711e-15), Final residual = (2.8945e-26 4.418e-26 7.35479e-26), No Iterations 107
maxResidual = 0.0121405

ExecutionTime = 13.96 s  ClockTime = 15 s

Time = 133

         Steady solver/PNP-NS Iteration      # 1
BiCGStab:  Solving for PNP, Initial residual = (0.0126721 0.0190052 1.12937e-14), Final residual = (4.05346e-27 6.18877e-27 1.02842e-26), No Iterations 106
maxResidual = 0.0190052

ExecutionTime = 14.06 s  ClockTime = 15 s

Time = 134

         Steady solver/PNP-NS Iteration      # 1
BiCGStab:  Solving for PNP, Initial residual = (0.00767386 0.0119344 7.20271e-15), Final residual = (1.95691e-26 2.98508e-26 4.95586e-26), No Iterations 108
maxResidual = 0.0119344

ExecutionTime = 14.16 s  ClockTime = 15 s

Time = 135

         Steady solver/PNP-NS Iteration      # 1
BiCGStab:  Solving for PNP, Initial residual = (0.0123427 0.0185059 1.17612e-14), Final residual = (3.02886e-26 4.62311e-26 7.65158e-26), No Iterations 107
maxResidual = 0.0185059

ExecutionTime = 14.27 s  ClockTime = 15 s

Time = 136

         Steady solver/PNP-NS Iteration      # 1
BiCGStab:  Solving for PNP, Initial residual = (0.00754311 0.0117318 7.45864e-15), Final residual = (1.48015e-26 2.25974e-26 3.75913e-26), No Iterations 107
maxResidual = 0.0117318

ExecutionTime = 14.37 s  ClockTime = 15 s

Time = 137

         Steady solver/PNP-NS Iteration      # 1
BiCGStab:  Solving for PNP, Initial residual = (0.0120241 0.0180233 1.15267e-14), Final residual = (2.36917e-26 3.61612e-26 6.00242e-26), No Iterations 105
maxResidual = 0.0180233

ExecutionTime = 14.47 s  ClockTime = 15 s

Time = 138

         Steady solver/PNP-NS Iteration      # 1
BiCGStab:  Solving for PNP, Initial residual = (0.00741451 0.0115324 7.29817e-15), Final residual = (1.64145e-26 2.50347e-26 4.16242e-26), No Iterations 107
maxResidual = 0.0115324

ExecutionTime = 14.58 s  ClockTime = 15 s

Time = 139

         Steady solver/PNP-NS Iteration      # 1
BiCGStab:  Solving for PNP, Initial residual = (0.011716 0.0175565 1.18403e-14), Final residual = (2.72109e-26 4.15322e-26 6.89745e-26), No Iterations 107
maxResidual = 0.0175565

ExecutionTime = 14.68 s  ClockTime = 16 s

Time = 140

         Steady solver/PNP-NS Iteration      # 1
BiCGStab:  Solving for PNP, Initial residual = (0.00728802 0.0113363 7.18563e-15), Final residual = (1.35844e-26 2.07324e-26 3.43746e-26), No Iterations 109
maxResidual = 0.0113363

ExecutionTime = 14.79 s  ClockTime = 16 s

Time = 141

         Steady solver/PNP-NS Iteration      # 1
BiCGStab:  Solving for PNP, Initial residual = (0.0114178 0.0171051 1.15386e-14), Final residual = (2.08031e-26 3.17527e-26 5.25998e-26), No Iterations 107
maxResidual = 0.0171051

ExecutionTime = 14.89 s  ClockTime = 16 s

Time = 142

         Steady solver/PNP-NS Iteration      # 1
BiCGStab:  Solving for PNP, Initial residual = (0.00716363 0.0111434 7.40993e-15), Final residual = (2.81221e-26 4.29222e-26 7.10732e-26), No Iterations 108
maxResidual = 0.0111434

ExecutionTime = 14.99 s  ClockTime = 16 s

Time = 143

         Steady solver/PNP-NS Iteration      # 1
BiCGStab:  Solving for PNP, Initial residual = (0.0111292 0.0166683 1.12976e-14), Final residual = (1.47889e-26 2.25739e-26 3.74131e-26), No Iterations 112
maxResidual = 0.0166683

ExecutionTime = 15.11 s  ClockTime = 16 s

Time = 144

         Steady solver/PNP-NS Iteration      # 1
BiCGStab:  Solving for PNP, Initial residual = (0.0070413 0.0109537 7.31099e-15), Final residual = (1.86352e-27 2.84424e-27 4.73268e-27), No Iterations 111
maxResidual = 0.0109537

ExecutionTime = 15.21 s  ClockTime = 16 s

Time = 145

         Steady solver/PNP-NS Iteration      # 1
BiCGStab:  Solving for PNP, Initial residual = (0.0108499 0.0162456 1.15893e-14), Final residual = (2.7347e-26 4.17437e-26 6.92998e-26), No Iterations 110
maxResidual = 0.0162456

ExecutionTime = 15.32 s  ClockTime = 16 s

Time = 146

         Steady solver/PNP-NS Iteration      # 1
BiCGStab:  Solving for PNP, Initial residual = (0.00692103 0.0107672 7.35728e-15), Final residual = (3.17242e-26 4.84194e-26 8.01416e-26), No Iterations 113
maxResidual = 0.0107672

ExecutionTime = 15.43 s  ClockTime = 16 s

Time = 147

         Steady solver/PNP-NS Iteration      # 1
BiCGStab:  Solving for PNP, Initial residual = (0.0105794 0.0158364 1.11602e-14), Final residual = (1.81511e-26 2.77073e-26 4.59574e-26), No Iterations 105
maxResidual = 0.0158364

ExecutionTime = 15.53 s  ClockTime = 16 s

Time = 148

         Steady solver/PNP-NS Iteration      # 1
BiCGStab:  Solving for PNP, Initial residual = (0.00680277 0.0105838 7.48741e-15), Final residual = (2.88743e-26 4.40496e-26 7.3334e-26), No Iterations 109
maxResidual = 0.0105838

ExecutionTime = 15.63 s  ClockTime = 17 s

Time = 149

         Steady solver/PNP-NS Iteration      # 1
BiCGStab:  Solving for PNP, Initial residual = (0.0103173 0.0154401 1.11412e-14), Final residual = (3.16796e-26 4.83531e-26 8.02308e-26), No Iterations 107
maxResidual = 0.0154401

ExecutionTime = 15.74 s  ClockTime = 17 s

Time = 150

         Steady solver/PNP-NS Iteration      # 1
BiCGStab:  Solving for PNP, Initial residual = (0.0066865 0.0104035 7.5165e-15), Final residual = (1.17654e-26 1.7965e-26 3.25852e-26), No Iterations 110
maxResidual = 0.0104035

ExecutionTime = 15.86 s  ClockTime = 17 s

Time = 151

         Steady solver/PNP-NS Iteration      # 1
BiCGStab:  Solving for PNP, Initial residual = (0.0100635 0.0150564 1.11562e-14), Final residual = (1.66888e-26 2.54726e-26 4.21925e-26), No Iterations 107
maxResidual = 0.0150564

ExecutionTime = 15.97 s  ClockTime = 17 s

Time = 152

         Steady solver/PNP-NS Iteration      # 1
BiCGStab:  Solving for PNP, Initial residual = (0.0065722 0.0102262 7.31201e-15), Final residual = (1.42401e-26 2.17343e-26 3.6058e-26), No Iterations 112
maxResidual = 0.0102262

ExecutionTime = 16.08 s  ClockTime = 17 s

Time = 153

         Steady solver/PNP-NS Iteration      # 1
BiCGStab:  Solving for PNP, Initial residual = (0.00981743 0.0146846 1.07501e-14), Final residual = (1.35158e-26 2.06294e-26 3.42018e-26), No Iterations 108
maxResidual = 0.0146846

ExecutionTime = 16.19 s  ClockTime = 17 s

Time = 154

         Steady solver/PNP-NS Iteration      # 1
BiCGStab:  Solving for PNP, Initial residual = (0.00645985 0.010052 7.41469e-15), Final residual = (3.16892e-26 4.84042e-26 8.01991e-26), No Iterations 109
maxResidual = 0.010052

ExecutionTime = 16.3 s  ClockTime = 17 s

Time = 155

         Steady solver/PNP-NS Iteration      # 1
BiCGStab:  Solving for PNP, Initial residual = (0.00957896 0.0143243 1.11268e-14), Final residual = (1.37857e-26 2.10436e-26 3.49529e-26), No Iterations 107
maxResidual = 0.0143243

ExecutionTime = 16.41 s  ClockTime = 17 s

Time = 156

         Steady solver/PNP-NS Iteration      # 1
BiCGStab:  Solving for PNP, Initial residual = (0.00634941 0.00988068 7.60112e-15), Final residual = (1.55715e-26 2.37652e-26 3.94869e-26), No Iterations 109
maxResidual = 0.00988068

ExecutionTime = 16.51 s  ClockTime = 17 s

Time = 157

         Steady solver/PNP-NS Iteration      # 1
BiCGStab:  Solving for PNP, Initial residual = (0.00934774 0.0139751 1.08776e-14), Final residual = (1.36791e-26 2.08784e-26 3.47231e-26), No Iterations 107
maxResidual = 0.0139751

ExecutionTime = 16.62 s  ClockTime = 18 s

Time = 158

         Steady solver/PNP-NS Iteration      # 1
BiCGStab:  Solving for PNP, Initial residual = (0.00624087 0.00971232 7.31958e-15), Final residual = (1.89195e-26 2.88781e-26 4.82255e-26), No Iterations 110
maxResidual = 0.00971232

ExecutionTime = 16.73 s  ClockTime = 18 s

Time = 159

         Steady solver/PNP-NS Iteration      # 1
BiCGStab:  Solving for PNP, Initial residual = (0.00912351 0.0136366 1.05354e-14), Final residual = (2.805e-26 4.28152e-26 7.1127e-26), No Iterations 106
maxResidual = 0.0136366

ExecutionTime = 16.83 s  ClockTime = 18 s

Time = 160

         Steady solver/PNP-NS Iteration      # 1
BiCGStab:  Solving for PNP, Initial residual = (0.00613419 0.00954684 7.59588e-15), Final residual = (2.91505e-26 4.42326e-26 7.36814e-26), No Iterations 107
maxResidual = 0.00954684

ExecutionTime = 16.94 s  ClockTime = 18 s

Time = 161

         Steady solver/PNP-NS Iteration      # 1
BiCGStab:  Solving for PNP, Initial residual = (0.00890601 0.0133083 1.09071e-14), Final residual = (1.58207e-26 2.41472e-26 4.0238e-26), No Iterations 107
maxResidual = 0.0133083

ExecutionTime = 17.05 s  ClockTime = 18 s

Time = 162

         Steady solver/PNP-NS Iteration      # 1
BiCGStab:  Solving for PNP, Initial residual = (0.00602935 0.0093842 7.49272e-15), Final residual = (7.2732e-27 1.11006e-26 1.84358e-26), No Iterations 107
maxResidual = 0.0093842

ExecutionTime = 17.16 s  ClockTime = 18 s

Time = 163

         Steady solver/PNP-NS Iteration      # 1
BiCGStab:  Solving for PNP, Initial residual = (0.00869498 0.0129899 1.06813e-14), Final residual = (1.13789e-26 1.73681e-26 2.87587e-26), No Iterations 107
maxResidual = 0.0129899

ExecutionTime = 17.26 s  ClockTime = 18 s

Time = 164

         Steady solver/PNP-NS Iteration      # 1
BiCGStab:  Solving for PNP, Initial residual = (0.00592633 0.00922437 7.39547e-15), Final residual = (2.72503e-26 4.1591e-26 6.88644e-26), No Iterations 110
maxResidual = 0.00922437

ExecutionTime = 17.36 s  ClockTime = 18 s

Time = 165

         Steady solver/PNP-NS Iteration      # 1
BiCGStab:  Solving for PNP, Initial residual = (0.0084902 0.012681 1.08321e-14), Final residual = (2.67867e-26 4.08856e-26 6.77003e-26), No Iterations 107
maxResidual = 0.012681

ExecutionTime = 17.47 s  ClockTime = 18 s

Time = 166

         Steady solver/PNP-NS Iteration      # 1
BiCGStab:  Solving for PNP, Initial residual = (0.00582509 0.00906731 7.53083e-15), Final residual = (1.71853e-26 2.62271e-26 4.41906e-26), No Iterations 108
maxResidual = 0.00906731

ExecutionTime = 17.57 s  ClockTime = 19 s

Time = 167

         Steady solver/PNP-NS Iteration      # 1
BiCGStab:  Solving for PNP, Initial residual = (0.00829143 0.0123813 1.09229e-14), Final residual = (2.21549e-26 3.38156e-26 5.61044e-26), No Iterations 106
maxResidual = 0.0123813

ExecutionTime = 17.68 s  ClockTime = 19 s

Time = 168

         Steady solver/PNP-NS Iteration      # 1
BiCGStab:  Solving for PNP, Initial residual = (0.00572562 0.00891298 7.43252e-15), Final residual = (2.75086e-26 4.1982e-26 6.96298e-26), No Iterations 110
maxResidual = 0.00891298

ExecutionTime = 17.78 s  ClockTime = 19 s

Time = 169

         Steady solver/PNP-NS Iteration      # 1
BiCGStab:  Solving for PNP, Initial residual = (0.00809846 0.0120905 1.06689e-14), Final residual = (2.76798e-26 4.22488e-26 6.99662e-26), No Iterations 106
maxResidual = 0.0120905

ExecutionTime = 17.89 s  ClockTime = 19 s

Time = 170

         Steady solver/PNP-NS Iteration      # 1
BiCGStab:  Solving for PNP, Initial residual = (0.00562793 0.00876133 7.57654e-15), Final residual = (2.6017e-26 3.97082e-26 6.58931e-26), No Iterations 107
maxResidual = 0.00876133

ExecutionTime = 18 s  ClockTime = 19 s

Time = 171

         Steady solver/PNP-NS Iteration      # 1
BiCGStab:  Solving for PNP, Initial residual = (0.00791107 0.0118082 1.01863e-14), Final residual = (1.61135e-26 2.45951e-26 4.08362e-26), No Iterations 107
maxResidual = 0.0118082

ExecutionTime = 18.11 s  ClockTime = 19 s

Time = 172

         Steady solver/PNP-NS Iteration      # 1
BiCGStab:  Solving for PNP, Initial residual = (0.00553194 0.00861233 7.34901e-15), Final residual = (1.5726e-26 2.40007e-26 4.01021e-26), No Iterations 110
maxResidual = 0.00861233

ExecutionTime = 18.22 s  ClockTime = 19 s

Time = 173

         Steady solver/PNP-NS Iteration      # 1
BiCGStab:  Solving for PNP, Initial residual = (0.00772908 0.0115341 1.06274e-14), Final residual = (2.91173e-26 4.44426e-26 7.36104e-26), No Iterations 105
maxResidual = 0.0115341

ExecutionTime = 18.32 s  ClockTime = 19 s

Time = 174

         Steady solver/PNP-NS Iteration      # 1
BiCGStab:  Solving for PNP, Initial residual = (0.00543764 0.00846594 7.27943e-15), Final residual = (1.66485e-26 2.54079e-26 4.22379e-26), No Iterations 108
maxResidual = 0.00846594

ExecutionTime = 18.42 s  ClockTime = 19 s

Time = 175

         Steady solver/PNP-NS Iteration      # 1
BiCGStab:  Solving for PNP, Initial residual = (0.00755229 0.011268 1.0341e-14), Final residual = (2.01521e-26 3.07585e-26 5.10103e-26), No Iterations 106
maxResidual = 0.011268

ExecutionTime = 18.53 s  ClockTime = 20 s

Time = 176

         Steady solver/PNP-NS Iteration      # 1
BiCGStab:  Solving for PNP, Initial residual = (0.005345 0.00832215 7.3808e-15), Final residual = (1.60376e-26 2.4414e-26 4.25134e-26), No Iterations 107
maxResidual = 0.00832215

ExecutionTime = 18.63 s  ClockTime = 20 s

Time = 177

         Steady solver/PNP-NS Iteration      # 1
BiCGStab:  Solving for PNP, Initial residual = (0.00738056 0.0110095 1.0189e-14), Final residual = (2.07742e-26 3.17084e-26 5.2578e-26), No Iterations 107
maxResidual = 0.0110095

ExecutionTime = 18.73 s  ClockTime = 20 s

Time = 178

         Steady solver/PNP-NS Iteration      # 1
BiCGStab:  Solving for PNP, Initial residual = (0.005254 0.00818091 7.59595e-15), Final residual = (2.92633e-26 4.46594e-26 7.44164e-26), No Iterations 108
maxResidual = 0.00818091

ExecutionTime = 18.85 s  ClockTime = 20 s

Time = 179

         Steady solver/PNP-NS Iteration      # 1
BiCGStab:  Solving for PNP, Initial residual = (0.00721369 0.0107583 1.0392e-14), Final residual = (2.72436e-26 4.15816e-26 6.93874e-26), No Iterations 105
maxResidual = 0.0107583

ExecutionTime = 18.95 s  ClockTime = 20 s

Time = 180

         Steady solver/PNP-NS Iteration      # 1
BiCGStab:  Solving for PNP, Initial residual = (0.00516461 0.00804217 7.41201e-15), Final residual = (1.18293e-26 1.80517e-26 3.00343e-26), No Iterations 107
maxResidual = 0.00804217

ExecutionTime = 19.06 s  ClockTime = 20 s

Time = 181

         Steady solver/PNP-NS Iteration      # 1
BiCGStab:  Solving for PNP, Initial residual = (0.00705149 0.0105143 1.01947e-14), Final residual = (5.4716e-27 8.35157e-27 1.38824e-26), No Iterations 108
maxResidual = 0.0105143

ExecutionTime = 19.16 s  ClockTime = 20 s

Time = 182

         Steady solver/PNP-NS Iteration      # 1
BiCGStab:  Solving for PNP, Initial residual = (0.0050768 0.00790587 7.45419e-15), Final residual = (2.12604e-26 3.23933e-26 5.49454e-26), No Iterations 110
maxResidual = 0.00790587

ExecutionTime = 19.27 s  ClockTime = 20 s

Time = 183

         Steady solver/PNP-NS Iteration      # 1
BiCGStab:  Solving for PNP, Initial residual = (0.00689381 0.0102771 9.99635e-15), Final residual = (1.33346e-26 2.03522e-26 3.37569e-26), No Iterations 106
maxResidual = 0.0102771

ExecutionTime = 19.37 s  ClockTime = 20 s

Time = 184

         Steady solver/PNP-NS Iteration      # 1
BiCGStab:  Solving for PNP, Initial residual = (0.00499054 0.00777199 7.38828e-15), Final residual = (1.65194e-26 2.5213e-26 4.18007e-26), No Iterations 111
maxResidual = 0.00777199

ExecutionTime = 19.48 s  ClockTime = 20 s

Time = 185

         Steady solver/PNP-NS Iteration      # 1
BiCGStab:  Solving for PNP, Initial residual = (0.0067405 0.0100466 9.97913e-15), Final residual = (1.99054e-26 3.03821e-26 5.03611e-26), No Iterations 113
maxResidual = 0.0100466

ExecutionTime = 19.59 s  ClockTime = 21 s

Time = 186

         Steady solver/PNP-NS Iteration      # 1
BiCGStab:  Solving for PNP, Initial residual = (0.00490583 0.00764049 7.2831e-15), Final residual = (2.87396e-26 4.38587e-26 7.30144e-26), No Iterations 106
maxResidual = 0.00764049

ExecutionTime = 19.69 s  ClockTime = 21 s

Time = 187

         Steady solver/PNP-NS Iteration      # 1
BiCGStab:  Solving for PNP, Initial residual = (0.0065914 0.00982251 1.00142e-14), Final residual = (6.66732e-27 1.01777e-26 1.6969e-26), No Iterations 106
maxResidual = 0.00982251

ExecutionTime = 19.8 s  ClockTime = 21 s

Time = 188

         Steady solver/PNP-NS Iteration      # 1
BiCGStab:  Solving for PNP, Initial residual = (0.00482262 0.00751132 7.43033e-15), Final residual = (2.67708e-26 4.08607e-26 6.7714e-26), No Iterations 115
maxResidual = 0.00751132

ExecutionTime = 19.91 s  ClockTime = 21 s

Time = 189

         Steady solver/PNP-NS Iteration      # 1
BiCGStab:  Solving for PNP, Initial residual = (0.00644638 0.0096046 9.59835e-15), Final residual = (2.67438e-26 4.08187e-26 6.78358e-26), No Iterations 105
maxResidual = 0.0096046

ExecutionTime = 20.01 s  ClockTime = 21 s

Time = 190

         Steady solver/PNP-NS Iteration      # 1
BiCGStab:  Solving for PNP, Initial residual = (0.0047409 0.00738446 7.28768e-15), Final residual = (1.46999e-26 2.24355e-26 3.72322e-26), No Iterations 110
maxResidual = 0.00738446

ExecutionTime = 20.14 s  ClockTime = 21 s

Time = 191

         Steady solver/PNP-NS Iteration      # 1
BiCGStab:  Solving for PNP, Initial residual = (0.00630531 0.00939268 9.76843e-15), Final residual = (2.45721e-26 3.75054e-26 6.22343e-26), No Iterations 105
maxResidual = 0.00939268

ExecutionTime = 20.24 s  ClockTime = 21 s

Time = 192

         Steady solver/PNP-NS Iteration      # 1
BiCGStab:  Solving for PNP, Initial residual = (0.00466065 0.00725985 7.46675e-15), Final residual = (2.57342e-26 3.92807e-26 6.65903e-26), No Iterations 111
maxResidual = 0.00725985

ExecutionTime = 20.35 s  ClockTime = 21 s

Time = 193

         Steady solver/PNP-NS Iteration      # 1
BiCGStab:  Solving for PNP, Initial residual = (0.00616804 0.00918655 9.78012e-15), Final residual = (3.11547e-26 4.75513e-26 7.88595e-26), No Iterations 105
maxResidual = 0.00918655

ExecutionTime = 20.45 s  ClockTime = 21 s

Time = 194

         Steady solver/PNP-NS Iteration      # 1
BiCGStab:  Solving for PNP, Initial residual = (0.00458183 0.00713747 2.00286e-14), Final residual = (1.37837e-26 2.10366e-26 3.51103e-26), No Iterations 109
maxResidual = 0.00713747

ExecutionTime = 20.56 s  ClockTime = 22 s

Time = 195

         Steady solver/PNP-NS Iteration      # 1
BiCGStab:  Solving for PNP, Initial residual = (0.00603446 0.00898602 9.54866e-15), Final residual = (2.19947e-26 3.35701e-26 5.5807e-26), No Iterations 107
maxResidual = 0.00898602

ExecutionTime = 20.66 s  ClockTime = 22 s

Time = 196

         Steady solver/PNP-NS Iteration      # 1
BiCGStab:  Solving for PNP, Initial residual = (0.00450442 0.00701728 7.41807e-15), Final residual = (3.05527e-26 4.66297e-26 7.73345e-26), No Iterations 108
maxResidual = 0.00701728

ExecutionTime = 20.76 s  ClockTime = 22 s

Time = 197

         Steady solver/PNP-NS Iteration      # 1
BiCGStab:  Solving for PNP, Initial residual = (0.00590445 0.0087909 9.62717e-15), Final residual = (2.74622e-26 4.19164e-26 6.96661e-26), No Iterations 107
maxResidual = 0.0087909

ExecutionTime = 20.87 s  ClockTime = 22 s

Time = 198

         Steady solver/PNP-NS Iteration      # 1
BiCGStab:  Solving for PNP, Initial residual = (0.0044284 0.00689924 7.26299e-15), Final residual = (2.85868e-26 4.36314e-26 7.24445e-26), No Iterations 107
maxResidual = 0.00689924

ExecutionTime = 20.98 s  ClockTime = 22 s

Time = 199

         Steady solver/PNP-NS Iteration      # 1
BiCGStab:  Solving for PNP, Initial residual = (0.00577789 0.00860102 9.53095e-15), Final residual = (1.38865e-26 2.11986e-26 3.53789e-26), No Iterations 108
maxResidual = 0.00860102

ExecutionTime = 21.09 s  ClockTime = 22 s

Time = 200

         Steady solver/PNP-NS Iteration      # 1
BiCGStab:  Solving for PNP, Initial residual = (0.00435376 0.00678332 7.40538e-15), Final residual = (2.40849e-26 3.67598e-26 6.09265e-26), No Iterations 114
maxResidual = 0.00678332

ExecutionTime = 21.21 s  ClockTime = 22 s

Time = 201

         Steady solver/PNP-NS Iteration      # 1
BiCGStab:  Solving for PNP, Initial residual = (0.00565467 0.00841621 9.54689e-15), Final residual = (2.88894e-26 4.40877e-26 7.42889e-26), No Iterations 108
maxResidual = 0.00841621

ExecutionTime = 21.33 s  ClockTime = 22 s

Time = 202

         Steady solver/PNP-NS Iteration      # 1
BiCGStab:  Solving for PNP, Initial residual = (0.00428045 0.00666948 7.16616e-15), Final residual = (1.13469e-26 1.73101e-26 2.87593e-26), No Iterations 109
maxResidual = 0.00666948

ExecutionTime = 21.43 s  ClockTime = 22 s

Time = 203

         Steady solver/PNP-NS Iteration      # 1
BiCGStab:  Solving for PNP, Initial residual = (0.00553468 0.00823631 9.58588e-15), Final residual = (8.75543e-27 1.33626e-26 2.23724e-26), No Iterations 107
maxResidual = 0.00823631

ExecutionTime = 21.55 s  ClockTime = 23 s

Time = 204

         Steady solver/PNP-NS Iteration      # 1
BiCGStab:  Solving for PNP, Initial residual = (0.00420847 0.00655768 7.14086e-15), Final residual = (2.60492e-26 3.97705e-26 6.60595e-26), No Iterations 106
maxResidual = 0.00655768

ExecutionTime = 21.65 s  ClockTime = 23 s

Time = 205

         Steady solver/PNP-NS Iteration      # 1
BiCGStab:  Solving for PNP, Initial residual = (0.00541783 0.00806116 9.34132e-15), Final residual = (2.62612e-26 4.00779e-26 6.76664e-26), No Iterations 106
maxResidual = 0.00806116

ExecutionTime = 21.76 s  ClockTime = 23 s

Time = 206

         Steady solver/PNP-NS Iteration      # 1
BiCGStab:  Solving for PNP, Initial residual = (0.00413779 0.0064479 7.42475e-15), Final residual = (1.7694e-26 2.70037e-26 4.50417e-26), No Iterations 106
maxResidual = 0.0064479

ExecutionTime = 21.87 s  ClockTime = 23 s

Time = 207

         Steady solver/PNP-NS Iteration      # 1
BiCGStab:  Solving for PNP, Initial residual = (0.00530401 0.0078906 9.22578e-15), Final residual = (2.79508e-26 4.26596e-26 7.15571e-26), No Iterations 111
maxResidual = 0.0078906

ExecutionTime = 21.99 s  ClockTime = 23 s

Time = 208

         Steady solver/PNP-NS Iteration      # 1
BiCGStab:  Solving for PNP, Initial residual = (0.00406838 0.00634009 7.27775e-15), Final residual = (3.18235e-26 4.85714e-26 8.05715e-26), No Iterations 108
maxResidual = 0.00634009

ExecutionTime = 22.1 s  ClockTime = 23 s

Time = 209

         Steady solver/PNP-NS Iteration      # 1
BiCGStab:  Solving for PNP, Initial residual = (0.00519312 0.0077245 9.57949e-15), Final residual = (1.60597e-26 2.45115e-26 4.07465e-26), No Iterations 106
maxResidual = 0.0077245

ExecutionTime = 22.2 s  ClockTime = 23 s

Time = 210

         Steady solver/PNP-NS Iteration      # 1
BiCGStab:  Solving for PNP, Initial residual = (0.00400023 0.00623422 7.37432e-15), Final residual = (2.34676e-26 3.58189e-26 5.95028e-26), No Iterations 109
maxResidual = 0.00623422

ExecutionTime = 22.32 s  ClockTime = 23 s

Time = 211

         Steady solver/PNP-NS Iteration      # 1
BiCGStab:  Solving for PNP, Initial residual = (0.00508509 0.00756272 9.43883e-15), Final residual = (1.98945e-26 3.03647e-26 5.04661e-26), No Iterations 106
maxResidual = 0.00756272

ExecutionTime = 22.43 s  ClockTime = 24 s

Time = 212

         Steady solver/PNP-NS Iteration      # 1
BiCGStab:  Solving for PNP, Initial residual = (0.00393331 0.00613027 7.46602e-15), Final residual = (2.68881e-26 4.1057e-26 6.85699e-26), No Iterations 108
maxResidual = 0.00613027

ExecutionTime = 22.54 s  ClockTime = 24 s

Time = 213

         Steady solver/PNP-NS Iteration      # 1
BiCGStab:  Solving for PNP, Initial residual = (0.00497981 0.00740511 9.03811e-15), Final residual = (1.75875e-26 2.68431e-26 4.47112e-26), No Iterations 108
maxResidual = 0.00740511

ExecutionTime = 22.65 s  ClockTime = 24 s

Time = 214

         Steady solver/PNP-NS Iteration      # 1
BiCGStab:  Solving for PNP, Initial residual = (0.00386761 0.00602819 7.38643e-15), Final residual = (2.75581e-26 4.20576e-26 6.9707e-26), No Iterations 106
maxResidual = 0.00602819

ExecutionTime = 22.76 s  ClockTime = 24 s

Time = 215

         Steady solver/PNP-NS Iteration      # 1
BiCGStab:  Solving for PNP, Initial residual = (0.00487721 0.00725155 9.28942e-15), Final residual = (2.06192e-26 3.14567e-26 5.25922e-26), No Iterations 106
maxResidual = 0.00725155

ExecutionTime = 22.87 s  ClockTime = 24 s

Time = 216

         Steady solver/PNP-NS Iteration      # 1
BiCGStab:  Solving for PNP, Initial residual = (0.00380309 0.00592795 7.14519e-15), Final residual = (1.2165e-26 1.85629e-26 3.07937e-26), No Iterations 110
maxResidual = 0.00592795

ExecutionTime = 22.97 s  ClockTime = 24 s

Time = 217

         Steady solver/PNP-NS Iteration      # 1
BiCGStab:  Solving for PNP, Initial residual = (0.0047772 0.00710192 9.11678e-15), Final residual = (1.5845e-26 2.41837e-26 4.0133e-26), No Iterations 107
maxResidual = 0.00710192

ExecutionTime = 23.08 s  ClockTime = 24 s

Time = 218

         Steady solver/PNP-NS Iteration      # 1
BiCGStab:  Solving for PNP, Initial residual = (0.00373974 0.00582952 7.43656e-15), Final residual = (2.76715e-26 4.22318e-26 7.02974e-26), No Iterations 107
maxResidual = 0.00582952

ExecutionTime = 23.19 s  ClockTime = 24 s

Time = 219

         Steady solver/PNP-NS Iteration      # 1
BiCGStab:  Solving for PNP, Initial residual = (0.0046797 0.0069561 9.33022e-15), Final residual = (2.27812e-26 3.47705e-26 5.77928e-26), No Iterations 108
maxResidual = 0.0069561

ExecutionTime = 23.3 s  ClockTime = 24 s

Time = 220

         Steady solver/PNP-NS Iteration      # 1
BiCGStab:  Solving for PNP, Initial residual = (0.00367755 0.00573287 7.19265e-15), Final residual = (2.50149e-26 3.81816e-26 6.48284e-26), No Iterations 113
maxResidual = 0.00573287

ExecutionTime = 23.43 s  ClockTime = 25 s

Time = 221

         Steady solver/PNP-NS Iteration      # 1
BiCGStab:  Solving for PNP, Initial residual = (0.00458465 0.00681396 8.97961e-15), Final residual = (2.3394e-26 3.57058e-26 5.93744e-26), No Iterations 108
maxResidual = 0.00681396

ExecutionTime = 23.53 s  ClockTime = 25 s

Time = 222

         Steady solver/PNP-NS Iteration      # 1
BiCGStab:  Solving for PNP, Initial residual = (0.00361648 0.00563797 7.14123e-15), Final residual = (1.57147e-26 2.39842e-26 3.99021e-26), No Iterations 109
maxResidual = 0.00563797

ExecutionTime = 23.65 s  ClockTime = 25 s

Time = 223

         Steady solver/PNP-NS Iteration      # 1
BiCGStab:  Solving for PNP, Initial residual = (0.00449195 0.0066754 8.7859e-15), Final residual = (1.8045e-26 2.75412e-26 4.58279e-26), No Iterations 105
maxResidual = 0.0066754

ExecutionTime = 23.76 s  ClockTime = 25 s

Time = 224

         Steady solver/PNP-NS Iteration      # 1
BiCGStab:  Solving for PNP, Initial residual = (0.00355652 0.00554479 7.26553e-15), Final residual = (1.77606e-26 2.71048e-26 4.53232e-26), No Iterations 108
maxResidual = 0.00554479

ExecutionTime = 23.86 s  ClockTime = 25 s

Time = 225

         Steady solver/PNP-NS Iteration      # 1
BiCGStab:  Solving for PNP, Initial residual = (0.00440155 0.00654032 9.2488e-15), Final residual = (3.1504e-26 4.80771e-26 8.03921e-26), No Iterations 107
maxResidual = 0.00654032

ExecutionTime = 23.97 s  ClockTime = 25 s

Time = 226

         Steady solver/PNP-NS Iteration      # 1
BiCGStab:  Solving for PNP, Initial residual = (0.00349764 0.00545329 7.06206e-15), Final residual = (2.09802e-26 3.2024e-26 6.68314e-26), No Iterations 111
maxResidual = 0.00545329

ExecutionTime = 24.08 s  ClockTime = 25 s

Time = 227

         Steady solver/PNP-NS Iteration      # 1
BiCGStab:  Solving for PNP, Initial residual = (0.00431338 0.00640859 8.83583e-15), Final residual = (1.9858e-26 3.03079e-26 5.06133e-26), No Iterations 111
maxResidual = 0.00640859

ExecutionTime = 24.19 s  ClockTime = 25 s

Time = 228

         Steady solver/PNP-NS Iteration      # 1
BiCGStab:  Solving for PNP, Initial residual = (0.00343984 0.00536344 7.08659e-15), Final residual = (1.31382e-26 2.00285e-26 3.34501e-26), No Iterations 112
maxResidual = 0.00536344

ExecutionTime = 24.31 s  ClockTime = 25 s

Time = 229

         Steady solver/PNP-NS Iteration      # 1
BiCGStab:  Solving for PNP, Initial residual = (0.00422737 0.00628014 8.94423e-15), Final residual = (2.9808e-26 4.54872e-26 7.75989e-26), No Iterations 105
maxResidual = 0.00628014

ExecutionTime = 24.41 s  ClockTime = 26 s

Time = 230

         Steady solver/PNP-NS Iteration      # 1
BiCGStab:  Solving for PNP, Initial residual = (0.00338309 0.00527522 7.23419e-15), Final residual = (3.47151e-27 5.29894e-27 8.8424e-27), No Iterations 112
maxResidual = 0.00527522

ExecutionTime = 24.54 s  ClockTime = 26 s

Time = 231

         Steady solver/PNP-NS Iteration      # 1
BiCGStab:  Solving for PNP, Initial residual = (0.00414345 0.00615485 9.14343e-15), Final residual = (1.01144e-26 1.54375e-26 2.57217e-26), No Iterations 106
maxResidual = 0.00615485

ExecutionTime = 24.64 s  ClockTime = 26 s

Time = 232

         Steady solver/PNP-NS Iteration      # 1
BiCGStab:  Solving for PNP, Initial residual = (0.00332736 0.0051886 7.28463e-15), Final residual = (2.82684e-26 4.32384e-26 7.28472e-26), No Iterations 113
maxResidual = 0.0051886

ExecutionTime = 24.76 s  ClockTime = 26 s

Time = 233

         Steady solver/PNP-NS Iteration      # 1
BiCGStab:  Solving for PNP, Initial residual = (0.00406158 0.00603264 9.23581e-15), Final residual = (1.92152e-26 2.93272e-26 4.896e-26), No Iterations 109
maxResidual = 0.00603264

ExecutionTime = 24.87 s  ClockTime = 26 s

Time = 234

         Steady solver/PNP-NS Iteration      # 1
BiCGStab:  Solving for PNP, Initial residual = (0.00327264 0.00510351 7.21331e-15), Final residual = (2.86214e-26 4.37149e-26 7.4045e-26), No Iterations 108
maxResidual = 0.00510351

ExecutionTime = 24.98 s  ClockTime = 26 s

Time = 235

         Steady solver/PNP-NS Iteration      # 1
BiCGStab:  Solving for PNP, Initial residual = (0.00398165 0.00591338 9.19224e-15), Final residual = (2.2916e-26 3.49764e-26 5.80961e-26), No Iterations 106
maxResidual = 0.00591338

ExecutionTime = 25.09 s  ClockTime = 26 s

Time = 236

         Steady solver/PNP-NS Iteration      # 1
BiCGStab:  Solving for PNP, Initial residual = (0.00321887 0.0050199 7.2417e-15), Final residual = (2.8508e-27 4.35135e-27 7.25595e-27), No Iterations 117
maxResidual = 0.0050199

ExecutionTime = 25.21 s  ClockTime = 26 s

Time = 237

         Steady solver/PNP-NS Iteration      # 1
BiCGStab:  Solving for PNP, Initial residual = (0.00390359 0.00579695 8.97423e-15), Final residual = (2.36205e-26 3.60512e-26 5.98678e-26), No Iterations 105
maxResidual = 0.00579695

ExecutionTime = 25.31 s  ClockTime = 26 s

Time = 238

         Steady solver/PNP-NS Iteration      # 1
BiCGStab:  Solving for PNP, Initial residual = (0.00316605 0.00493774 7.23169e-15), Final residual = (2.89403e-26 4.41601e-26 7.36406e-26), No Iterations 112
maxResidual = 0.00493774

ExecutionTime = 25.43 s  ClockTime = 27 s

Time = 239

         Steady solver/PNP-NS Iteration      # 1
BiCGStab:  Solving for PNP, Initial residual = (0.00382734 0.00568327 8.89597e-15), Final residual = (3.14771e-26 4.80402e-26 8.05646e-26), No Iterations 105
maxResidual = 0.00568327

ExecutionTime = 25.54 s  ClockTime = 27 s

Time = 240

         Steady solver/PNP-NS Iteration      # 1
BiCGStab:  Solving for PNP, Initial residual = (0.00311415 0.00485701 7.24516e-15), Final residual = (2.40033e-26 3.66345e-26 6.09235e-26), No Iterations 110
maxResidual = 0.00485701

ExecutionTime = 25.65 s  ClockTime = 27 s

Time = 241

         Steady solver/PNP-NS Iteration      # 1
BiCGStab:  Solving for PNP, Initial residual = (0.00375287 0.00557226 8.86106e-15), Final residual = (1.98623e-26 3.03149e-26 5.05059e-26), No Iterations 106
maxResidual = 0.00557226

ExecutionTime = 25.76 s  ClockTime = 27 s

Time = 242

         Steady solver/PNP-NS Iteration      # 1
BiCGStab:  Solving for PNP, Initial residual = (0.00306316 0.00477769 7.16653e-15), Final residual = (2.97286e-26 4.53726e-26 7.54391e-26), No Iterations 110
maxResidual = 0.00477769

ExecutionTime = 25.87 s  ClockTime = 27 s

Time = 243

         Steady solver/PNP-NS Iteration      # 1
BiCGStab:  Solving for PNP, Initial residual = (0.00368011 0.00546384 8.86456e-15), Final residual = (8.72743e-27 1.33203e-26 2.21908e-26), No Iterations 106
maxResidual = 0.00546384

ExecutionTime = 25.98 s  ClockTime = 27 s

Time = 244

         Steady solver/PNP-NS Iteration      # 1
BiCGStab:  Solving for PNP, Initial residual = (0.00301307 0.00469975 7.13312e-15), Final residual = (3.08227e-26 4.70422e-26 7.89294e-26), No Iterations 110
maxResidual = 0.00469975

ExecutionTime = 26.09 s  ClockTime = 27 s

Time = 245

         Steady solver/PNP-NS Iteration      # 1
BiCGStab:  Solving for PNP, Initial residual = (0.00360902 0.00535794 8.48178e-15), Final residual = (1.53346e-26 2.3405e-26 3.88905e-26), No Iterations 105
maxResidual = 0.00535794

ExecutionTime = 26.2 s  ClockTime = 27 s

Time = 246

         Steady solver/PNP-NS Iteration      # 1
BiCGStab:  Solving for PNP, Initial residual = (0.00296385 0.00462317 7.07831e-15), Final residual = (1.5165e-26 2.31574e-26 3.89252e-26), No Iterations 112
maxResidual = 0.00462317

ExecutionTime = 26.31 s  ClockTime = 27 s

Time = 247

         Steady solver/PNP-NS Iteration      # 1
BiCGStab:  Solving for PNP, Initial residual = (0.00353956 0.0052545 8.62787e-15), Final residual = (2.96091e-26 4.51914e-26 7.52077e-26), No Iterations 105
maxResidual = 0.0052545

ExecutionTime = 26.42 s  ClockTime = 28 s

Time = 248

         Steady solver/PNP-NS Iteration      # 1
BiCGStab:  Solving for PNP, Initial residual = (0.00291549 0.00454793 7.27285e-15), Final residual = (2.66086e-26 4.05974e-26 7.04724e-26), No Iterations 110
maxResidual = 0.00454793

ExecutionTime = 26.53 s  ClockTime = 28 s

Time = 249

         Steady solver/PNP-NS Iteration      # 1
BiCGStab:  Solving for PNP, Initial residual = (0.00347168 0.00515344 8.67967e-15), Final residual = (2.25254e-26 3.43801e-26 5.7141e-26), No Iterations 105
maxResidual = 0.00515344

ExecutionTime = 26.63 s  ClockTime = 28 s

Time = 250

         Steady solver/PNP-NS Iteration      # 1
BiCGStab:  Solving for PNP, Initial residual = (0.00286799 0.004474 7.25486e-15), Final residual = (8.437e-27 1.28518e-26 2.2234e-26), No Iterations 112
maxResidual = 0.004474

ExecutionTime = 26.76 s  ClockTime = 28 s

Time = 251

         Steady solver/PNP-NS Iteration      # 1
BiCGStab:  Solving for PNP, Initial residual = (0.00340533 0.0050547 8.68198e-15), Final residual = (2.26317e-26 3.45427e-26 5.74215e-26), No Iterations 105
maxResidual = 0.0050547

ExecutionTime = 26.87 s  ClockTime = 28 s

Time = 252

         Steady solver/PNP-NS Iteration      # 1
BiCGStab:  Solving for PNP, Initial residual = (0.00282131 0.00440136 7.0035e-15), Final residual = (2.35172e-26 3.58931e-26 5.9639e-26), No Iterations 107
maxResidual = 0.00440136

ExecutionTime = 26.98 s  ClockTime = 28 s

Time = 253

         Steady solver/PNP-NS Iteration      # 1
BiCGStab:  Solving for PNP, Initial residual = (0.00334049 0.00495821 8.26997e-15), Final residual = (2.37808e-26 3.62945e-26 6.0695e-26), No Iterations 105
maxResidual = 0.00495821

ExecutionTime = 27.09 s  ClockTime = 28 s

Time = 254

         Steady solver/PNP-NS Iteration      # 1
BiCGStab:  Solving for PNP, Initial residual = (0.00277545 0.00432998 7.14096e-15), Final residual = (2.27254e-26 3.46841e-26 5.78713e-26), No Iterations 108
maxResidual = 0.00432998

ExecutionTime = 27.2 s  ClockTime = 28 s

Time = 255

         Steady solver/PNP-NS Iteration      # 1
BiCGStab:  Solving for PNP, Initial residual = (0.00327711 0.00486393 8.74568e-15), Final residual = (2.03813e-26 3.11076e-26 5.1696e-26), No Iterations 106
maxResidual = 0.00486393

ExecutionTime = 27.3 s  ClockTime = 29 s

Time = 256

         Steady solver/PNP-NS Iteration      # 1
BiCGStab:  Solving for PNP, Initial residual = (0.0027304 0.00425986 6.95913e-15), Final residual = (2.5391e-26 3.87516e-26 6.45273e-26), No Iterations 107
maxResidual = 0.00425986

ExecutionTime = 27.41 s  ClockTime = 29 s

Time = 257

         Steady solver/PNP-NS Iteration      # 1
BiCGStab:  Solving for PNP, Initial residual = (0.00321515 0.00477179 8.2564e-15), Final residual = (2.47654e-26 3.77987e-26 6.28306e-26), No Iterations 105
maxResidual = 0.00477179

ExecutionTime = 27.53 s  ClockTime = 29 s

Time = 258

         Steady solver/PNP-NS Iteration      # 1
BiCGStab:  Solving for PNP, Initial residual = (0.00268614 0.00419095 7.29199e-15), Final residual = (2.97384e-26 4.53819e-26 7.65647e-26), No Iterations 107
maxResidual = 0.00419095

ExecutionTime = 27.63 s  ClockTime = 29 s

Time = 259

         Steady solver/PNP-NS Iteration      # 1
BiCGStab:  Solving for PNP, Initial residual = (0.00315457 0.00468173 8.40059e-15), Final residual = (5.21658e-27 7.96174e-27 1.32827e-26), No Iterations 109
maxResidual = 0.00468173

ExecutionTime = 27.75 s  ClockTime = 29 s

Time = 260

         Steady solver/PNP-NS Iteration      # 1
BiCGStab:  Solving for PNP, Initial residual = (0.00264265 0.00412326 7.20151e-15), Final residual = (7.00821e-27 1.0673e-26 1.79364e-26), No Iterations 106
maxResidual = 0.00412326

ExecutionTime = 27.85 s  ClockTime = 29 s

Time = 261

         Steady solver/PNP-NS Iteration      # 1
BiCGStab:  Solving for PNP, Initial residual = (0.00309534 0.0045937 8.27276e-15), Final residual = (2.07713e-26 3.17026e-26 5.2731e-26), No Iterations 106
maxResidual = 0.0045937

ExecutionTime = 27.96 s  ClockTime = 29 s

Time = 262

         Steady solver/PNP-NS Iteration      # 1
BiCGStab:  Solving for PNP, Initial residual = (0.00259993 0.00405674 7.1791e-15), Final residual = (1.72674e-26 2.6354e-26 4.42653e-26), No Iterations 106
maxResidual = 0.00405674

ExecutionTime = 28.06 s  ClockTime = 29 s

Time = 263

         Steady solver/PNP-NS Iteration      # 1
BiCGStab:  Solving for PNP, Initial residual = (0.00303743 0.00450764 8.32404e-15), Final residual = (2.55836e-26 3.90467e-26 6.5138e-26), No Iterations 105
maxResidual = 0.00450764

ExecutionTime = 28.16 s  ClockTime = 29 s

Time = 264

         Steady solver/PNP-NS Iteration      # 1
BiCGStab:  Solving for PNP, Initial residual = (0.00255796 0.00399138 7.11926e-15), Final residual = (5.74938e-27 8.78583e-27 1.48425e-26), No Iterations 106
maxResidual = 0.00399138

ExecutionTime = 28.27 s  ClockTime = 30 s

Time = 265

         Steady solver/PNP-NS Iteration      # 1
BiCGStab:  Solving for PNP, Initial residual = (0.00298079 0.0044235 8.14796e-15), Final residual = (2.06254e-26 3.14783e-26 5.24804e-26), No Iterations 106
maxResidual = 0.0044235

ExecutionTime = 28.37 s  ClockTime = 30 s

Time = 266

         Steady solver/PNP-NS Iteration      # 1
BiCGStab:  Solving for PNP, Initial residual = (0.00251672 0.00392717 7.05341e-15), Final residual = (3.15494e-26 4.8198e-26 8.01727e-26), No Iterations 108
maxResidual = 0.00392717

ExecutionTime = 28.48 s  ClockTime = 30 s

Time = 267

         Steady solver/PNP-NS Iteration      # 1
BiCGStab:  Solving for PNP, Initial residual = (0.0029254 0.00434123 8.38223e-15), Final residual = (2.5522e-26 3.89511e-26 6.53087e-26), No Iterations 105
maxResidual = 0.00434123

ExecutionTime = 28.58 s  ClockTime = 30 s

Time = 268

         Steady solver/PNP-NS Iteration      # 1
BiCGStab:  Solving for PNP, Initial residual = (0.0024762 0.00386407 7.07121e-15), Final residual = (2.59188e-26 3.95508e-26 6.71121e-26), No Iterations 106
maxResidual = 0.00386407

ExecutionTime = 28.68 s  ClockTime = 30 s

Time = 269

         Steady solver/PNP-NS Iteration      # 1
BiCGStab:  Solving for PNP, Initial residual = (0.00287121 0.00426079 8.28403e-15), Final residual = (1.06585e-26 1.62661e-26 2.74007e-26), No Iterations 105
maxResidual = 0.00426079

ExecutionTime = 28.78 s  ClockTime = 30 s

Time = 270

         Steady solver/PNP-NS Iteration      # 1
BiCGStab:  Solving for PNP, Initial residual = (0.0024364 0.00380207 6.96795e-15), Final residual = (2.21355e-26 3.37847e-26 5.62199e-26), No Iterations 107
maxResidual = 0.00380207

ExecutionTime = 28.89 s  ClockTime = 30 s

Time = 271

         Steady solver/PNP-NS Iteration      # 1
BiCGStab:  Solving for PNP, Initial residual = (0.00281822 0.00418212 8.08393e-15), Final residual = (2.5719e-26 3.92502e-26 6.61445e-26), No Iterations 106
maxResidual = 0.00418212

ExecutionTime = 28.99 s  ClockTime = 30 s

Time = 272

         Steady solver/PNP-NS Iteration      # 1
BiCGStab:  Solving for PNP, Initial residual = (0.00239729 0.00374115 7.13856e-15), Final residual = (2.35532e-26 3.5928e-26 6.02643e-26), No Iterations 112
maxResidual = 0.00374115

ExecutionTime = 29.11 s  ClockTime = 30 s

Time = 273

         Steady solver/PNP-NS Iteration      # 1
BiCGStab:  Solving for PNP, Initial residual = (0.00276637 0.00410517 8.40939e-15), Final residual = (3.11333e-26 4.75168e-26 7.92632e-26), No Iterations 105
[...]
maxResidual = 1.84688e-05

ExecutionTime = 199.05 s  ClockTime = 206 s

Time = 1933

         Steady solver/PNP-NS Iteration      # 1
BiCGStab:  Solving for PNP, Initial residual = (1.34154e-05 1.85265e-05 5.40265e-15), Final residual = (1.16765e-26 1.7745e-26 6.58006e-26), No Iterations 92
maxResidual = 1.85265e-05

ExecutionTime = 199.13 s  ClockTime = 206 s

Time = 1934

         Steady solver/PNP-NS Iteration      # 1
BiCGStab:  Solving for PNP, Initial residual = (1.34478e-05 1.84278e-05 5.26394e-15), Final residual = (6.64524e-27 1.01082e-26 3.47714e-26), No Iterations 92
maxResidual = 1.84278e-05

ExecutionTime = 199.22 s  ClockTime = 206 s

Time = 1935

         Steady solver/PNP-NS Iteration      # 1
BiCGStab:  Solving for PNP, Initial residual = (1.33866e-05 1.84851e-05 5.40857e-15), Final residual = (1.23445e-26 1.87812e-26 6.49906e-26), No Iterations 92
maxResidual = 1.84851e-05

ExecutionTime = 199.31 s  ClockTime = 206 s

Time = 1936

         Steady solver/PNP-NS Iteration      # 1
BiCGStab:  Solving for PNP, Initial residual = (1.34186e-05 1.8387e-05 5.43596e-15), Final residual = (6.21878e-27 9.46389e-27 2.93356e-26), No Iterations 92
maxResidual = 1.8387e-05

ExecutionTime = 199.39 s  ClockTime = 206 s

Time = 1937

         Steady solver/PNP-NS Iteration      # 1
BiCGStab:  Solving for PNP, Initial residual = (1.33578e-05 1.84438e-05 5.28572e-15), Final residual = (1.44979e-26 2.20635e-26 8.01234e-26), No Iterations 93
maxResidual = 1.84438e-05

ExecutionTime = 199.48 s  ClockTime = 207 s

Time = 1938

         Steady solver/PNP-NS Iteration      # 1
BiCGStab:  Solving for PNP, Initial residual = (1.33896e-05 1.83463e-05 5.40234e-15), Final residual = (7.07512e-27 1.07798e-26 3.38008e-26), No Iterations 92
maxResidual = 1.83463e-05

ExecutionTime = 199.57 s  ClockTime = 207 s

Time = 1939

         Steady solver/PNP-NS Iteration      # 1
BiCGStab:  Solving for PNP, Initial residual = (1.3329e-05 1.84027e-05 5.30499e-15), Final residual = (9.33769e-27 1.42051e-26 4.87933e-26), No Iterations 92
maxResidual = 1.84027e-05

ExecutionTime = 199.66 s  ClockTime = 207 s

Time = 1940

         Steady solver/PNP-NS Iteration      # 1
BiCGStab:  Solving for PNP, Initial residual = (1.33606e-05 1.83056e-05 5.29975e-15), Final residual = (1.00536e-26 1.52877e-26 5.55388e-26), No Iterations 92
maxResidual = 1.83056e-05

ExecutionTime = 199.76 s  ClockTime = 207 s

Time = 1941

         Steady solver/PNP-NS Iteration      # 1
BiCGStab:  Solving for PNP, Initial residual = (1.33004e-05 1.83616e-05 5.30964e-15), Final residual = (1.29278e-26 1.96516e-26 6.9436e-26), No Iterations 92
maxResidual = 1.83616e-05

ExecutionTime = 199.85 s  ClockTime = 207 s

Time = 1942

         Steady solver/PNP-NS Iteration      # 1
BiCGStab:  Solving for PNP, Initial residual = (1.33317e-05 1.82651e-05 5.27758e-15), Final residual = (7.13747e-27 1.08575e-26 3.83544e-26), No Iterations 92
maxResidual = 1.82651e-05

ExecutionTime = 199.93 s  ClockTime = 207 s

Time = 1943

         Steady solver/PNP-NS Iteration      # 1
BiCGStab:  Solving for PNP, Initial residual = (1.32718e-05 1.83206e-05 5.26184e-15), Final residual = (1.1587e-26 1.76043e-26 6.63088e-26), No Iterations 92
maxResidual = 1.83206e-05

ExecutionTime = 200.02 s  ClockTime = 207 s

Time = 1944

         Steady solver/PNP-NS Iteration      # 1
BiCGStab:  Solving for PNP, Initial residual = (1.33029e-05 1.82247e-05 5.23893e-15), Final residual = (1.05858e-26 1.609e-26 5.44643e-26), No Iterations 92
maxResidual = 1.82247e-05

ExecutionTime = 200.12 s  ClockTime = 207 s

Time = 1945

         Steady solver/PNP-NS Iteration      # 1
BiCGStab:  Solving for PNP, Initial residual = (1.32433e-05 1.82798e-05 5.09277e-15), Final residual = (1.25e-26 1.90257e-26 6.3537e-26), No Iterations 92
maxResidual = 1.82798e-05

ExecutionTime = 200.2 s  ClockTime = 207 s

Time = 1946

         Steady solver/PNP-NS Iteration      # 1
BiCGStab:  Solving for PNP, Initial residual = (1.32742e-05 1.81844e-05 5.32823e-15), Final residual = (8.82121e-27 1.3404e-26 5.61065e-26), No Iterations 92
maxResidual = 1.81844e-05

ExecutionTime = 200.29 s  ClockTime = 207 s

Time = 1947

         Steady solver/PNP-NS Iteration      # 1
BiCGStab:  Solving for PNP, Initial residual = (1.32148e-05 1.8239e-05 5.21242e-15), Final residual = (1.46643e-26 2.23046e-26 8.07755e-26), No Iterations 92
maxResidual = 1.8239e-05

ExecutionTime = 200.37 s  ClockTime = 207 s

Time = 1948

         Steady solver/PNP-NS Iteration      # 1
BiCGStab:  Solving for PNP, Initial residual = (1.32455e-05 1.81441e-05 5.31019e-15), Final residual = (1.65684e-26 2.52566e-26 7.06415e-26), No Iterations 91
maxResidual = 1.81441e-05

ExecutionTime = 200.46 s  ClockTime = 208 s

Time = 1949

         Steady solver/PNP-NS Iteration      # 1
BiCGStab:  Solving for PNP, Initial residual = (1.31865e-05 1.81984e-05 5.27569e-15), Final residual = (9.22896e-27 1.4024e-26 5.51246e-26), No Iterations 92
maxResidual = 1.81984e-05

ExecutionTime = 200.55 s  ClockTime = 208 s

Time = 1950

         Steady solver/PNP-NS Iteration      # 1
BiCGStab:  Solving for PNP, Initial residual = (1.32169e-05 1.8104e-05 5.25575e-15), Final residual = (2.16429e-26 3.30013e-26 8.97984e-26), No Iterations 91
maxResidual = 1.8104e-05

ExecutionTime = 200.65 s  ClockTime = 208 s

Time = 1951

         Steady solver/PNP-NS Iteration      # 1
BiCGStab:  Solving for PNP, Initial residual = (1.31581e-05 1.81578e-05 5.39747e-15), Final residual = (1.43759e-26 2.18903e-26 7.44077e-26), No Iterations 93
maxResidual = 1.81578e-05

ExecutionTime = 200.74 s  ClockTime = 208 s

Time = 1952

         Steady solver/PNP-NS Iteration      # 1
BiCGStab:  Solving for PNP, Initial residual = (1.31883e-05 1.8064e-05 5.35292e-15), Final residual = (1.7057e-26 2.59551e-26 8.64852e-26), No Iterations 91
maxResidual = 1.8064e-05

ExecutionTime = 200.83 s  ClockTime = 208 s

Time = 1953

         Steady solver/PNP-NS Iteration      # 1
BiCGStab:  Solving for PNP, Initial residual = (1.31299e-05 1.81174e-05 5.25697e-15), Final residual = (1.52166e-26 2.31795e-26 7.54391e-26), No Iterations 92
maxResidual = 1.81174e-05

ExecutionTime = 200.92 s  ClockTime = 208 s

Time = 1954

         Steady solver/PNP-NS Iteration      # 1
BiCGStab:  Solving for PNP, Initial residual = (1.31599e-05 1.8024e-05 5.28274e-15), Final residual = (1.54614e-26 2.35254e-26 8.77193e-26), No Iterations 91
maxResidual = 1.8024e-05

ExecutionTime = 201 s  ClockTime = 208 s

Time = 1955

         Steady solver/PNP-NS Iteration      # 1
BiCGStab:  Solving for PNP, Initial residual = (1.31017e-05 1.8077e-05 5.35116e-15), Final residual = (1.16859e-26 1.77823e-26 6.63916e-26), No Iterations 92
maxResidual = 1.8077e-05

ExecutionTime = 201.09 s  ClockTime = 208 s

Time = 1956

         Steady solver/PNP-NS Iteration      # 1
BiCGStab:  Solving for PNP, Initial residual = (1.31315e-05 1.79842e-05 5.42013e-15), Final residual = (1.17769e-26 1.79348e-26 6.32054e-26), No Iterations 92
maxResidual = 1.79842e-05

ExecutionTime = 201.18 s  ClockTime = 208 s

Time = 1957

         Steady solver/PNP-NS Iteration      # 1
BiCGStab:  Solving for PNP, Initial residual = (1.30736e-05 1.80368e-05 5.33021e-15), Final residual = (9.97123e-27 1.5175e-26 5.008e-26), No Iterations 93
maxResidual = 1.80368e-05

ExecutionTime = 201.28 s  ClockTime = 208 s

Time = 1958

         Steady solver/PNP-NS Iteration      # 1
BiCGStab:  Solving for PNP, Initial residual = (1.31032e-05 1.79445e-05 5.39958e-15), Final residual = (1.70734e-26 2.60196e-26 8.09935e-26), No Iterations 91
maxResidual = 1.79445e-05

ExecutionTime = 201.36 s  ClockTime = 209 s

Time = 1959

         Steady solver/PNP-NS Iteration      # 1
BiCGStab:  Solving for PNP, Initial residual = (1.30456e-05 1.79966e-05 5.2555e-15), Final residual = (8.69066e-27 1.32405e-26 3.83441e-26), No Iterations 92
maxResidual = 1.79966e-05

ExecutionTime = 201.45 s  ClockTime = 209 s

Time = 1960

         Steady solver/PNP-NS Iteration      # 1
BiCGStab:  Solving for PNP, Initial residual = (1.30749e-05 1.79048e-05 5.40651e-15), Final residual = (1.75125e-26 2.66886e-26 7.77138e-26), No Iterations 91
maxResidual = 1.79048e-05

ExecutionTime = 201.54 s  ClockTime = 209 s

Time = 1961

         Steady solver/PNP-NS Iteration      # 1
BiCGStab:  Solving for PNP, Initial residual = (1.30176e-05 1.79566e-05 5.32668e-15), Final residual = (1.38622e-26 2.10854e-26 7.56034e-26), No Iterations 92
maxResidual = 1.79566e-05

ExecutionTime = 201.63 s  ClockTime = 209 s

Time = 1962

         Steady solver/PNP-NS Iteration      # 1
BiCGStab:  Solving for PNP, Initial residual = (1.30467e-05 1.78653e-05 5.33725e-15), Final residual = (1.38099e-26 2.09547e-26 7.02772e-26), No Iterations 91
maxResidual = 1.78653e-05

ExecutionTime = 201.72 s  ClockTime = 209 s

Time = 1963

         Steady solver/PNP-NS Iteration      # 1
BiCGStab:  Solving for PNP, Initial residual = (1.29897e-05 1.79167e-05 5.30199e-15), Final residual = (8.29446e-27 1.26235e-26 4.16306e-26), No Iterations 92
maxResidual = 1.79167e-05

ExecutionTime = 201.81 s  ClockTime = 209 s

Time = 1964

         Steady solver/PNP-NS Iteration      # 1
BiCGStab:  Solving for PNP, Initial residual = (1.30186e-05 1.78259e-05 5.37766e-15), Final residual = (7.65081e-27 1.16267e-26 4.07265e-26), No Iterations 91
maxResidual = 1.78259e-05

ExecutionTime = 201.9 s  ClockTime = 209 s

Time = 1965

         Steady solver/PNP-NS Iteration      # 1
BiCGStab:  Solving for PNP, Initial residual = (1.29619e-05 1.78768e-05 5.38796e-15), Final residual = (1.26682e-26 1.92465e-26 7.56849e-26), No Iterations 93
maxResidual = 1.78768e-05

ExecutionTime = 201.99 s  ClockTime = 209 s

Time = 1966

         Steady solver/PNP-NS Iteration      # 1
BiCGStab:  Solving for PNP, Initial residual = (1.29906e-05 1.77865e-05 5.27126e-15), Final residual = (1.38662e-26 2.10806e-26 6.80613e-26), No Iterations 91
maxResidual = 1.77865e-05

ExecutionTime = 202.08 s  ClockTime = 209 s

Time = 1967

         Steady solver/PNP-NS Iteration      # 1
BiCGStab:  Solving for PNP, Initial residual = (1.29341e-05 1.78371e-05 5.33146e-15), Final residual = (1.3249e-26 2.01964e-26 5.93588e-26), No Iterations 92
maxResidual = 1.78371e-05

ExecutionTime = 202.17 s  ClockTime = 209 s

Time = 1968

         Steady solver/PNP-NS Iteration      # 1
BiCGStab:  Solving for PNP, Initial residual = (1.29626e-05 1.77472e-05 5.33145e-15), Final residual = (4.26933e-27 6.50631e-27 1.97994e-26), No Iterations 91
maxResidual = 1.77472e-05

ExecutionTime = 202.25 s  ClockTime = 209 s

Time = 1969

         Steady solver/PNP-NS Iteration      # 1
BiCGStab:  Solving for PNP, Initial residual = (1.29064e-05 1.77975e-05 5.5475e-15), Final residual = (1.01647e-26 1.54872e-26 4.9323e-26), No Iterations 93
maxResidual = 1.77975e-05

ExecutionTime = 202.34 s  ClockTime = 210 s

Time = 1970

         Steady solver/PNP-NS Iteration      # 1
BiCGStab:  Solving for PNP, Initial residual = (1.29347e-05 1.77081e-05 5.45973e-15), Final residual = (7.53471e-27 1.14736e-26 4.00059e-26), No Iterations 91
maxResidual = 1.77081e-05

ExecutionTime = 202.44 s  ClockTime = 210 s

Time = 1971

         Steady solver/PNP-NS Iteration      # 1
BiCGStab:  Solving for PNP, Initial residual = (1.28788e-05 1.77579e-05 5.36398e-15), Final residual = (1.82818e-26 2.78561e-26 8.87512e-26), No Iterations 92
maxResidual = 1.77579e-05

ExecutionTime = 202.53 s  ClockTime = 210 s

Time = 1972

         Steady solver/PNP-NS Iteration      # 1
BiCGStab:  Solving for PNP, Initial residual = (1.29068e-05 1.7669e-05 5.49636e-15), Final residual = (1.44164e-26 2.18604e-26 7.24353e-26), No Iterations 91
maxResidual = 1.7669e-05

ExecutionTime = 202.61 s  ClockTime = 210 s

Time = 1973

         Steady solver/PNP-NS Iteration      # 1
BiCGStab:  Solving for PNP, Initial residual = (1.28512e-05 1.77185e-05 5.27718e-15), Final residual = (1.17522e-26 1.78372e-26 7.00336e-26), No Iterations 93
maxResidual = 1.77185e-05

ExecutionTime = 202.7 s  ClockTime = 210 s

Time = 1974

         Steady solver/PNP-NS Iteration      # 1
BiCGStab:  Solving for PNP, Initial residual = (1.28791e-05 1.76301e-05 5.47695e-15), Final residual = (1.23666e-26 1.88233e-26 6.64854e-26), No Iterations 93
maxResidual = 1.76301e-05

ExecutionTime = 202.79 s  ClockTime = 210 s

Time = 1975

         Steady solver/PNP-NS Iteration      # 1
BiCGStab:  Solving for PNP, Initial residual = (1.28237e-05 1.76792e-05 5.29867e-15), Final residual = (1.03022e-26 1.56862e-26 5.13403e-26), No Iterations 92
maxResidual = 1.76792e-05

ExecutionTime = 202.87 s  ClockTime = 210 s

Time = 1976

         Steady solver/PNP-NS Iteration      # 1
BiCGStab:  Solving for PNP, Initial residual = (1.28514e-05 1.75912e-05 5.30752e-15), Final residual = (5.41214e-27 8.25062e-27 2.52842e-26), No Iterations 92
maxResidual = 1.75912e-05

ExecutionTime = 202.96 s  ClockTime = 210 s

Time = 1977

         Steady solver/PNP-NS Iteration      # 1
BiCGStab:  Solving for PNP, Initial residual = (1.27963e-05 1.76399e-05 5.3192e-15), Final residual = (1.61214e-26 2.45689e-26 7.7043e-26), No Iterations 92
maxResidual = 1.76399e-05

ExecutionTime = 203.05 s  ClockTime = 210 s

Time = 1978

         Steady solver/PNP-NS Iteration      # 1
BiCGStab:  Solving for PNP, Initial residual = (1.28237e-05 1.75524e-05 5.48037e-15), Final residual = (4.2907e-27 6.51953e-27 2.42121e-26), No Iterations 92
maxResidual = 1.75524e-05

ExecutionTime = 203.14 s  ClockTime = 210 s

Time = 1979

         Steady solver/PNP-NS Iteration      # 1
BiCGStab:  Solving for PNP, Initial residual = (1.27689e-05 1.76008e-05 5.31388e-15), Final residual = (1.10741e-26 1.68806e-26 5.10248e-26), No Iterations 92
maxResidual = 1.76008e-05

ExecutionTime = 203.23 s  ClockTime = 210 s

Time = 1980

         Steady solver/PNP-NS Iteration      # 1
BiCGStab:  Solving for PNP, Initial residual = (1.27962e-05 1.75137e-05 5.36462e-15), Final residual = (8.3248e-27 1.26435e-26 4.99693e-26), No Iterations 92
maxResidual = 1.75137e-05

ExecutionTime = 203.33 s  ClockTime = 211 s

Time = 1981

         Steady solver/PNP-NS Iteration      # 1
BiCGStab:  Solving for PNP, Initial residual = (1.27416e-05 1.75618e-05 5.34975e-15), Final residual = (1.06439e-26 1.62189e-26 5.15775e-26), No Iterations 92
maxResidual = 1.75618e-05

ExecutionTime = 203.42 s  ClockTime = 211 s

Time = 1982

         Steady solver/PNP-NS Iteration      # 1
BiCGStab:  Solving for PNP, Initial residual = (1.27687e-05 1.74751e-05 5.46252e-15), Final residual = (8.6212e-27 1.31285e-26 4.59554e-26), No Iterations 92
maxResidual = 1.74751e-05

ExecutionTime = 203.51 s  ClockTime = 211 s

Time = 1983

         Steady solver/PNP-NS Iteration      # 1
BiCGStab:  Solving for PNP, Initial residual = (1.27143e-05 1.75228e-05 5.39877e-15), Final residual = (1.1186e-26 1.70101e-26 6.10311e-26), No Iterations 92
maxResidual = 1.75228e-05

ExecutionTime = 203.59 s  ClockTime = 211 s

Time = 1984

         Steady solver/PNP-NS Iteration      # 1
BiCGStab:  Solving for PNP, Initial residual = (1.27412e-05 1.74366e-05 5.35062e-15), Final residual = (1.29467e-26 1.94051e-26 8.26414e-26), No Iterations 92
maxResidual = 1.74366e-05

ExecutionTime = 203.68 s  ClockTime = 211 s

Time = 1985

         Steady solver/PNP-NS Iteration      # 1
BiCGStab:  Solving for PNP, Initial residual = (1.26872e-05 1.7484e-05 5.33216e-15), Final residual = (5.77259e-27 8.63772e-27 2.8682e-26), No Iterations 96
maxResidual = 1.7484e-05

ExecutionTime = 203.77 s  ClockTime = 211 s

Time = 1986

         Steady solver/PNP-NS Iteration      # 1
BiCGStab:  Solving for PNP, Initial residual = (1.27139e-05 1.73982e-05 5.40216e-15), Final residual = (4.95097e-27 7.52412e-27 2.70273e-26), No Iterations 92
maxResidual = 1.73982e-05

ExecutionTime = 203.88 s  ClockTime = 211 s

Time = 1987

         Steady solver/PNP-NS Iteration      # 1
BiCGStab:  Solving for PNP, Initial residual = (1.266e-05 1.74452e-05 5.31048e-15), Final residual = (9.60045e-27 1.43359e-26 5.93839e-26), No Iterations 95
maxResidual = 1.74452e-05

ExecutionTime = 203.97 s  ClockTime = 211 s

Time = 1988

         Steady solver/PNP-NS Iteration      # 1
BiCGStab:  Solving for PNP, Initial residual = (1.26866e-05 1.73599e-05 5.43616e-15), Final residual = (3.78889e-27 5.78639e-27 1.95366e-26), No Iterations 92
maxResidual = 1.73599e-05

ExecutionTime = 204.06 s  ClockTime = 211 s

Time = 1989

         Steady solver/PNP-NS Iteration      # 1
BiCGStab:  Solving for PNP, Initial residual = (1.2633e-05 1.74066e-05 5.27794e-15), Final residual = (1.45873e-26 2.1781e-26 8.78164e-26), No Iterations 93
maxResidual = 1.74066e-05

ExecutionTime = 204.15 s  ClockTime = 211 s

Time = 1990

         Steady solver/PNP-NS Iteration      # 1
BiCGStab:  Solving for PNP, Initial residual = (1.26593e-05 1.73217e-05 5.36952e-15), Final residual = (1.69868e-26 2.58474e-26 8.84621e-26), No Iterations 91
maxResidual = 1.73217e-05

ExecutionTime = 204.25 s  ClockTime = 212 s

Time = 1991

         Steady solver/PNP-NS Iteration      # 1
BiCGStab:  Solving for PNP, Initial residual = (1.26061e-05 1.7368e-05 5.27025e-15), Final residual = (9.58287e-27 1.4604e-26 4.58323e-26), No Iterations 92
maxResidual = 1.7368e-05

ExecutionTime = 204.34 s  ClockTime = 212 s

Time = 1992

         Steady solver/PNP-NS Iteration      # 1
BiCGStab:  Solving for PNP, Initial residual = (1.26322e-05 1.72836e-05 5.25515e-15), Final residual = (6.35503e-27 9.68262e-27 3.01664e-26), No Iterations 92
maxResidual = 1.72836e-05

ExecutionTime = 204.42 s  ClockTime = 212 s

Time = 1993

         Steady solver/PNP-NS Iteration      # 1
BiCGStab:  Solving for PNP, Initial residual = (1.25792e-05 1.73295e-05 5.30158e-15), Final residual = (1.08162e-26 1.64822e-26 5.27728e-26), No Iterations 92
maxResidual = 1.73295e-05

ExecutionTime = 204.51 s  ClockTime = 212 s

Time = 1994

         Steady solver/PNP-NS Iteration      # 1
BiCGStab:  Solving for PNP, Initial residual = (1.26051e-05 1.72456e-05 5.24137e-15), Final residual = (1.57416e-26 2.39768e-26 7.80448e-26), No Iterations 91
maxResidual = 1.72456e-05

ExecutionTime = 204.6 s  ClockTime = 212 s

Time = 1995

         Steady solver/PNP-NS Iteration      # 1
BiCGStab:  Solving for PNP, Initial residual = (1.25524e-05 1.72912e-05 5.42283e-15), Final residual = (1.25756e-26 1.91579e-26 6.28422e-26), No Iterations 92
maxResidual = 1.72912e-05

ExecutionTime = 204.69 s  ClockTime = 212 s

Time = 1996

         Steady solver/PNP-NS Iteration      # 1
BiCGStab:  Solving for PNP, Initial residual = (1.2578e-05 1.72078e-05 5.22107e-15), Final residual = (1.27131e-26 1.93366e-26 6.73417e-26), No Iterations 91
maxResidual = 1.72078e-05

ExecutionTime = 204.78 s  ClockTime = 212 s

Time = 1997

         Steady solver/PNP-NS Iteration      # 1
BiCGStab:  Solving for PNP, Initial residual = (1.25256e-05 1.72529e-05 5.31133e-15), Final residual = (1.34226e-26 2.04256e-26 7.07884e-26), No Iterations 92
maxResidual = 1.72529e-05

ExecutionTime = 204.87 s  ClockTime = 212 s

Time = 1998

         Steady solver/PNP-NS Iteration      # 1
BiCGStab:  Solving for PNP, Initial residual = (1.25511e-05 1.717e-05 5.39457e-15), Final residual = (3.01851e-27 4.5951e-27 1.69359e-26), No Iterations 92
maxResidual = 1.717e-05

ExecutionTime = 204.95 s  ClockTime = 212 s

Time = 1999

         Steady solver/PNP-NS Iteration      # 1
BiCGStab:  Solving for PNP, Initial residual = (1.2499e-05 1.72147e-05 5.2328e-15), Final residual = (8.53251e-27 1.29984e-26 4.23399e-26), No Iterations 92
maxResidual = 1.72147e-05

ExecutionTime = 205.04 s  ClockTime = 212 s

Time = 2000

         Steady solver/PNP-NS Iteration      # 1
BiCGStab:  Solving for PNP, Initial residual = (1.25242e-05 1.71323e-05 5.23269e-15), Final residual = (3.16377e-27 4.81188e-27 1.71254e-26), No Iterations 92
maxResidual = 1.71323e-05

ExecutionTime = 205.14 s  ClockTime = 212 s

End

