/*---------------------------------------------------------------------------*\
| =========                 |                                                 |
| \\      /  F ield         | foam-extend: Open Source CFD                    |
|  \\    /   O peration     | Version:     4.0                                |
|   \\  /    A nd           | Web:         http://www.foam-extend.org         |
|    \\/     M anipulation  | For copyright notice see file Copyright         |
\*---------------------------------------------------------------------------*/
Build    : 4.0-268bb07d15d8
Exec     : PNPnonDFoam
Date     : Mar 13 2024
Time     : 20:41:19
Host     : sh-Precision-7920-Tower
PID      : 5576
CtrlDict : "/media/sh/drive1/NextFoam/tutorials/Coupled/2D_example_steady_PNPnonD_analysis/2D_example_steady_PNPnonD_alpha05/system/controlDict"
Case     : /media/sh/drive1/NextFoam/tutorials/Coupled/2D_example_steady_PNPnonD_analysis/2D_example_steady_PNPnonD_alpha05
nProcs   : 1
SigFpe   : Enabling floating point exception trapping (FOAM_SIGFPE).

// * * * * * * * * * * * * * * * * * * * * * * * * * * * * * * * * * * * * * //
Create time

--> FOAM Warning : 
    From function dlLibraryTable::open(const fileName& functionLibName)
    in file db/dlLibraryTable/dlLibraryTable.C at line 124
    could not load libslipEOF.so: cannot open shared object file: No such file or directory
Create mesh for time = 0

Reading field psiE

Reading field psiI

Reading field cPlus

Reading field cMinus

Reading transportProperties

****************************************************************

Scale Parameters
****************************************************************
Average-diffusivity's value: 3.36e-09 [0 2 -1 0 0 0 0]
Time-scale's value: 0.0297619 [0 0 1 0 0 0 0]
Potential-scale's value: 0.025852 [1 2 -3 0 0 -1 0]
Velocity-scale's value: 4.73398e-05 [0 1 -1 0 0 0 0]
pressure-scale's value: 4.73398e-06 [0 2 -2 0 0 0 0]
Debye-Length's value: 9.74139e-09 [0 1 0 0 0 0 0]
Dimensionless diffusion coefficient DPlus_nonD: 0.395833
Dimensionless diffusion coefficient DMinus_nonD: 0.604167
Dimensionless Debye-Length: 0.000974139
Schmidt Number: 297.619
Reynold Number: 0.000473398
Pelec Number: 0.140892
****************************************************************
Reading field psiEGrad

Reading field phiE

Reading field DPlusphiE

Reading field DMinusphiE

Reading field phiDcPlus

Reading field phiDcMinus

Reading field netCharge

Creating field PNP


Starting time loop


Starting time loop

Time = 1

         Steady solver/PNP-NS Iteration      # 1
BiCGStab:  Solving for PNP, Initial residual = (0.450596 0.687752 0.569174), Final residual = (3.76972e-27 5.75413e-27 9.53211e-27), No Iterations 115
maxResidual = 0.687752

ExecutionTime = 0.16 s  ClockTime = 0 s

Time = 2

         Steady solver/PNP-NS Iteration      # 1
BiCGStab:  Solving for PNP, Initial residual = (0.0222092 0.0345668 4.89974e-15), Final residual = (2.24511e-26 3.42656e-26 5.67165e-26), No Iterations 104
maxResidual = 0.0345668

ExecutionTime = 0.26 s  ClockTime = 0 s

Time = 3

         Steady solver/PNP-NS Iteration      # 1
BiCGStab:  Solving for PNP, Initial residual = (0.240155 0.366523 4.53142e-14), Final residual = (5.13321e-27 7.83617e-27 1.29706e-26), No Iterations 107
maxResidual = 0.366523

ExecutionTime = 0.36 s  ClockTime = 0 s

Time = 4

         Steady solver/PNP-NS Iteration      # 1
BiCGStab:  Solving for PNP, Initial residual = (0.0218473 0.033823 4.0674e-15), Final residual = (2.46863e-26 3.76773e-26 6.23663e-26), No Iterations 105
maxResidual = 0.033823

ExecutionTime = 0.47 s  ClockTime = 0 s

Time = 5

         Steady solver/PNP-NS Iteration      # 1
BiCGStab:  Solving for PNP, Initial residual = (0.220361 0.337012 3.71804e-14), Final residual = (1.06681e-26 1.6286e-26 2.69553e-26), No Iterations 116
maxResidual = 0.337012

ExecutionTime = 0.58 s  ClockTime = 0 s

Time = 6

         Steady solver/PNP-NS Iteration      # 1
BiCGStab:  Solving for PNP, Initial residual = (0.0214393 0.0331656 4.558e-15), Final residual = (1.59637e-26 2.43638e-26 4.03346e-26), No Iterations 107
maxResidual = 0.0331656

ExecutionTime = 0.69 s  ClockTime = 1 s

Time = 7

         Steady solver/PNP-NS Iteration      # 1
BiCGStab:  Solving for PNP, Initial residual = (0.192927 0.295485 2.96251e-14), Final residual = (1.73458e-26 2.64779e-26 4.38247e-26), No Iterations 107
maxResidual = 0.295485

ExecutionTime = 0.79 s  ClockTime = 1 s

Time = 8

         Steady solver/PNP-NS Iteration      # 1
BiCGStab:  Solving for PNP, Initial residual = (0.0210351 0.032545 4.20443e-15), Final residual = (3.00681e-26 4.58858e-26 7.59599e-26), No Iterations 107
maxResidual = 0.032545

ExecutionTime = 0.89 s  ClockTime = 1 s

Time = 9

         Steady solver/PNP-NS Iteration      # 1
BiCGStab:  Solving for PNP, Initial residual = (0.168079 0.257615 3.22067e-14), Final residual = (2.31556e-26 3.5347e-26 5.85042e-26), No Iterations 110
maxResidual = 0.257615

ExecutionTime = 1 s  ClockTime = 1 s

Time = 10

         Steady solver/PNP-NS Iteration      # 1
BiCGStab:  Solving for PNP, Initial residual = (0.0206416 0.0319451 4.89331e-15), Final residual = (2.86742e-26 4.37645e-26 7.24514e-26), No Iterations 108
maxResidual = 0.0319451

ExecutionTime = 1.11 s  ClockTime = 1 s

Time = 11

         Steady solver/PNP-NS Iteration      # 1
BiCGStab:  Solving for PNP, Initial residual = (0.148671 0.227934 2.6092e-14), Final residual = (1.58499e-26 2.41974e-26 4.00501e-26), No Iterations 107
maxResidual = 0.227934

ExecutionTime = 1.21 s  ClockTime = 1 s

Time = 12

         Steady solver/PNP-NS Iteration      # 1
BiCGStab:  Solving for PNP, Initial residual = (0.020258 0.0313597 4.38625e-15), Final residual = (8.49607e-27 1.29668e-26 2.1465e-26), No Iterations 114
maxResidual = 0.0313597

ExecutionTime = 1.33 s  ClockTime = 1 s

Time = 13

         Steady solver/PNP-NS Iteration      # 1
BiCGStab:  Solving for PNP, Initial residual = (0.133041 0.203984 2.59048e-14), Final residual = (1.52001e-26 2.32029e-26 3.8405e-26), No Iterations 114
maxResidual = 0.203984

ExecutionTime = 1.44 s  ClockTime = 1 s

Time = 14

         Steady solver/PNP-NS Iteration      # 1
BiCGStab:  Solving for PNP, Initial residual = (0.0198827 0.0307863 5.09958e-15), Final residual = (2.68515e-27 4.09782e-27 6.78393e-27), No Iterations 114
maxResidual = 0.0307863

ExecutionTime = 1.55 s  ClockTime = 1 s

Time = 15

         Steady solver/PNP-NS Iteration      # 1
BiCGStab:  Solving for PNP, Initial residual = (0.120151 0.184207 5.33709e-14), Final residual = (1.30446e-26 1.9913e-26 3.29609e-26), No Iterations 113
maxResidual = 0.184207

ExecutionTime = 1.66 s  ClockTime = 2 s

Time = 16

         Steady solver/PNP-NS Iteration      # 1
BiCGStab:  Solving for PNP, Initial residual = (0.0195147 0.0302232 4.97165e-15), Final residual = (2.35492e-26 3.59416e-26 5.9495e-26), No Iterations 110
maxResidual = 0.0302232

ExecutionTime = 1.77 s  ClockTime = 2 s

Time = 17

         Steady solver/PNP-NS Iteration      # 1
BiCGStab:  Solving for PNP, Initial residual = (0.10932 0.167578 2.04595e-14), Final residual = (9.21888e-27 1.40718e-26 2.32917e-26), No Iterations 106
maxResidual = 0.167578

ExecutionTime = 1.87 s  ClockTime = 2 s

Time = 18

         Steady solver/PNP-NS Iteration      # 1
BiCGStab:  Solving for PNP, Initial residual = (0.0191533 0.0296695 4.82362e-15), Final residual = (2.31211e-26 3.52692e-26 5.84071e-26), No Iterations 108
maxResidual = 0.0296695

ExecutionTime = 1.98 s  ClockTime = 2 s

Time = 19

         Steady solver/PNP-NS Iteration      # 1
BiCGStab:  Solving for PNP, Initial residual = (0.100086 0.153395 1.99756e-14), Final residual = (9.03094e-27 1.37859e-26 2.2819e-26), No Iterations 107
maxResidual = 0.153395

ExecutionTime = 2.08 s  ClockTime = 2 s

Time = 20

         Steady solver/PNP-NS Iteration      # 1
BiCGStab:  Solving for PNP, Initial residual = (0.0187981 0.0291246 4.96951e-15), Final residual = (2.14919e-26 3.27964e-26 5.42986e-26), No Iterations 107
maxResidual = 0.0291246

ExecutionTime = 2.2 s  ClockTime = 2 s

Time = 21

         Steady solver/PNP-NS Iteration      # 1
BiCGStab:  Solving for PNP, Initial residual = (0.0921086 0.14114 1.87702e-14), Final residual = (9.86232e-27 1.5054e-26 2.49177e-26), No Iterations 107
maxResidual = 0.14114

ExecutionTime = 2.31 s  ClockTime = 2 s

Time = 22

         Steady solver/PNP-NS Iteration      # 1
BiCGStab:  Solving for PNP, Initial residual = (0.0184487 0.028588 4.83338e-15), Final residual = (1.56287e-26 2.38504e-26 3.94867e-26), No Iterations 109
maxResidual = 0.028588

ExecutionTime = 2.41 s  ClockTime = 2 s

Time = 23

         Steady solver/PNP-NS Iteration      # 1
BiCGStab:  Solving for PNP, Initial residual = (0.085151 0.13045 1.72227e-14), Final residual = (9.07413e-27 1.38516e-26 2.29272e-26), No Iterations 108
maxResidual = 0.13045

ExecutionTime = 2.52 s  ClockTime = 2 s

Time = 24

         Steady solver/PNP-NS Iteration      # 1
BiCGStab:  Solving for PNP, Initial residual = (0.0181047 0.0280593 5.03278e-15), Final residual = (3.05066e-26 4.65596e-26 7.70715e-26), No Iterations 103
maxResidual = 0.0280593

ExecutionTime = 2.62 s  ClockTime = 3 s

Time = 25

         Steady solver/PNP-NS Iteration      # 1
BiCGStab:  Solving for PNP, Initial residual = (0.0790268 0.121039 1.77142e-14), Final residual = (1.63204e-26 2.49119e-26 4.12395e-26), No Iterations 107
maxResidual = 0.121039

ExecutionTime = 2.73 s  ClockTime = 3 s

Time = 26

         Steady solver/PNP-NS Iteration      # 1
BiCGStab:  Solving for PNP, Initial residual = (0.0177662 0.0275386 5.18722e-15), Final residual = (2.12007e-26 3.23579e-26 5.3562e-26), No Iterations 107
maxResidual = 0.0275386

ExecutionTime = 2.83 s  ClockTime = 3 s

Time = 27

         Steady solver/PNP-NS Iteration      # 1
BiCGStab:  Solving for PNP, Initial residual = (0.0735922 0.112688 1.88577e-14), Final residual = (2.79124e-26 4.26061e-26 7.05299e-26), No Iterations 106
maxResidual = 0.112688

ExecutionTime = 2.94 s  ClockTime = 3 s

Time = 28

         Steady solver/PNP-NS Iteration      # 1
BiCGStab:  Solving for PNP, Initial residual = (0.0174327 0.0270254 5.10796e-15), Final residual = (2.87299e-26 4.38498e-26 7.25856e-26), No Iterations 106
maxResidual = 0.0270254

ExecutionTime = 3.04 s  ClockTime = 3 s

Time = 29

         Steady solver/PNP-NS Iteration      # 1
BiCGStab:  Solving for PNP, Initial residual = (0.0687403 0.105233 1.606e-14), Final residual = (1.93499e-26 2.95368e-26 4.88927e-26), No Iterations 107
maxResidual = 0.105233

ExecutionTime = 3.14 s  ClockTime = 3 s

Time = 30

         Steady solver/PNP-NS Iteration      # 1
BiCGStab:  Solving for PNP, Initial residual = (0.0171042 0.0265198 5.21676e-15), Final residual = (1.69892e-26 2.59289e-26 4.29212e-26), No Iterations 105
maxResidual = 0.0265198

ExecutionTime = 3.25 s  ClockTime = 3 s

Time = 31

         Steady solver/PNP-NS Iteration      # 1
BiCGStab:  Solving for PNP, Initial residual = (0.064382 0.0985358 1.73968e-14), Final residual = (2.8207e-26 4.30581e-26 7.12689e-26), No Iterations 108
maxResidual = 0.0985358

ExecutionTime = 3.36 s  ClockTime = 3 s

Time = 32

         Steady solver/PNP-NS Iteration      # 1
BiCGStab:  Solving for PNP, Initial residual = (0.0167806 0.0260214 5.19735e-15), Final residual = (1.39348e-26 2.12683e-26 3.52055e-26), No Iterations 114
maxResidual = 0.0260214

ExecutionTime = 3.47 s  ClockTime = 3 s

Time = 33

         Steady solver/PNP-NS Iteration      # 1
BiCGStab:  Solving for PNP, Initial residual = (0.0604449 0.0924866 1.64054e-14), Final residual = (2.81791e-26 4.30229e-26 7.15499e-26), No Iterations 107
maxResidual = 0.0924866

ExecutionTime = 3.57 s  ClockTime = 4 s

Time = 34

         Steady solver/PNP-NS Iteration      # 1
BiCGStab:  Solving for PNP, Initial residual = (0.0164618 0.0255301 5.40604e-15), Final residual = (1.6518e-26 2.52105e-26 4.17329e-26), No Iterations 106
maxResidual = 0.0255301

ExecutionTime = 3.67 s  ClockTime = 4 s

Time = 35

         Steady solver/PNP-NS Iteration      # 1
BiCGStab:  Solving for PNP, Initial residual = (0.0568723 0.0869979 1.54223e-14), Final residual = (7.96371e-27 1.21565e-26 2.01227e-26), No Iterations 107
maxResidual = 0.0869979

ExecutionTime = 3.78 s  ClockTime = 4 s

Time = 36

         Steady solver/PNP-NS Iteration      # 1
BiCGStab:  Solving for PNP, Initial residual = (0.0161477 0.025046 5.2078e-15), Final residual = (7.76207e-27 1.18472e-26 1.96106e-26), No Iterations 106
maxResidual = 0.025046

ExecutionTime = 3.89 s  ClockTime = 4 s

Time = 37

         Steady solver/PNP-NS Iteration      # 1
BiCGStab:  Solving for PNP, Initial residual = (0.0536177 0.0819983 1.53518e-14), Final residual = (1.52348e-26 2.32551e-26 3.84928e-26), No Iterations 108
maxResidual = 0.0819983

ExecutionTime = 3.99 s  ClockTime = 4 s

Time = 38

         Steady solver/PNP-NS Iteration      # 1
BiCGStab:  Solving for PNP, Initial residual = (0.0158383 0.0245689 8.34099e-15), Final residual = (5.65066e-27 8.62988e-27 1.43324e-26), No Iterations 106
maxResidual = 0.0245689

ExecutionTime = 4.1 s  ClockTime = 4 s

Time = 39

         Steady solver/PNP-NS Iteration      # 1
BiCGStab:  Solving for PNP, Initial residual = (0.0506406 0.0774256 1.73041e-14), Final residual = (1.2132e-26 1.85188e-26 3.06578e-26), No Iterations 107
maxResidual = 0.0774256

ExecutionTime = 4.2 s  ClockTime = 4 s

Time = 40

         Steady solver/PNP-NS Iteration      # 1
BiCGStab:  Solving for PNP, Initial residual = (0.0155335 0.0240987 5.61106e-15), Final residual = (1.32559e-26 2.02305e-26 3.34879e-26), No Iterations 109
maxResidual = 0.0240987

ExecutionTime = 4.31 s  ClockTime = 4 s

Time = 41

         Steady solver/PNP-NS Iteration      # 1
BiCGStab:  Solving for PNP, Initial residual = (0.0479072 0.0732278 1.51149e-14), Final residual = (3.02865e-26 4.62296e-26 7.65182e-26), No Iterations 107
maxResidual = 0.0732278

ExecutionTime = 4.42 s  ClockTime = 4 s

Time = 42

         Steady solver/PNP-NS Iteration      # 1
BiCGStab:  Solving for PNP, Initial residual = (0.0152333 0.0236354 5.51865e-15), Final residual = (1.01324e-26 1.54607e-26 2.56e-26), No Iterations 108
maxResidual = 0.0236354

ExecutionTime = 4.52 s  ClockTime = 5 s

Time = 43

         Steady solver/PNP-NS Iteration      # 1
BiCGStab:  Solving for PNP, Initial residual = (0.0453901 0.0693628 1.4838e-14), Final residual = (3.20792e-26 4.89675e-26 8.1046e-26), No Iterations 106
maxResidual = 0.0693628

ExecutionTime = 4.63 s  ClockTime = 5 s

Time = 44

         Steady solver/PNP-NS Iteration      # 1
BiCGStab:  Solving for PNP, Initial residual = (0.0149376 0.023179 5.6149e-15), Final residual = (2.56838e-26 3.92016e-26 6.4895e-26), No Iterations 105
maxResidual = 0.023179

ExecutionTime = 4.73 s  ClockTime = 5 s

Time = 45

         Steady solver/PNP-NS Iteration      # 1
BiCGStab:  Solving for PNP, Initial residual = (0.043066 0.0657946 1.44275e-14), Final residual = (2.39277e-26 3.65229e-26 6.04517e-26), No Iterations 110
maxResidual = 0.0657946

ExecutionTime = 4.83 s  ClockTime = 5 s

Time = 46

         Steady solver/PNP-NS Iteration      # 1
BiCGStab:  Solving for PNP, Initial residual = (0.0146464 0.0227294 5.63551e-15), Final residual = (1.96404e-26 2.99596e-26 4.96057e-26), No Iterations 104
maxResidual = 0.0227294

ExecutionTime = 4.94 s  ClockTime = 5 s

Time = 47

         Steady solver/PNP-NS Iteration      # 1
BiCGStab:  Solving for PNP, Initial residual = (0.0409139 0.062491 1.51599e-14), Final residual = (1.50093e-26 2.29131e-26 3.79277e-26), No Iterations 109
maxResidual = 0.062491

ExecutionTime = 5.04 s  ClockTime = 5 s

Time = 48

         Steady solver/PNP-NS Iteration      # 1
BiCGStab:  Solving for PNP, Initial residual = (0.0143597 0.0222865 5.75986e-15), Final residual = (2.98627e-26 4.5581e-26 7.54725e-26), No Iterations 106
maxResidual = 0.0222865

ExecutionTime = 5.14 s  ClockTime = 5 s

Time = 49

         Steady solver/PNP-NS Iteration      # 1
BiCGStab:  Solving for PNP, Initial residual = (0.0389155 0.059424 1.44571e-14), Final residual = (1.74418e-26 2.66236e-26 4.40708e-26), No Iterations 113
maxResidual = 0.059424

ExecutionTime = 5.26 s  ClockTime = 5 s

Time = 50

         Steady solver/PNP-NS Iteration      # 1
BiCGStab:  Solving for PNP, Initial residual = (0.0140773 0.0218502 5.60235e-15), Final residual = (1.02846e-26 1.56862e-26 2.60422e-26), No Iterations 111
maxResidual = 0.0218502

ExecutionTime = 5.37 s  ClockTime = 5 s

Time = 51

         Steady solver/PNP-NS Iteration      # 1
BiCGStab:  Solving for PNP, Initial residual = (0.0370559 0.0565704 1.39938e-14), Final residual = (2.36504e-26 3.61016e-26 5.97647e-26), No Iterations 113
maxResidual = 0.0565704

ExecutionTime = 5.49 s  ClockTime = 6 s

Time = 52

         Steady solver/PNP-NS Iteration      # 1
BiCGStab:  Solving for PNP, Initial residual = (0.0137993 0.0214206 5.66385e-15), Final residual = (2.28131e-26 3.48199e-26 5.76433e-26), No Iterations 107
maxResidual = 0.0214206

ExecutionTime = 5.59 s  ClockTime = 6 s

Time = 53

         Steady solver/PNP-NS Iteration      # 1
BiCGStab:  Solving for PNP, Initial residual = (0.035322 0.0539101 1.49262e-14), Final residual = (1.04641e-26 1.59725e-26 2.64377e-26), No Iterations 113
maxResidual = 0.0539101

ExecutionTime = 5.7 s  ClockTime = 6 s

Time = 54

         Steady solver/PNP-NS Iteration      # 1
BiCGStab:  Solving for PNP, Initial residual = (0.0135257 0.0209976 5.80599e-15), Final residual = (3.03413e-26 4.63064e-26 7.66569e-26), No Iterations 104
maxResidual = 0.0209976

ExecutionTime = 5.8 s  ClockTime = 6 s

Time = 55

         Steady solver/PNP-NS Iteration      # 1
BiCGStab:  Solving for PNP, Initial residual = (0.0337022 0.0514253 1.35155e-14), Final residual = (1.7813e-26 2.71899e-26 4.50039e-26), No Iterations 113
maxResidual = 0.0514253

ExecutionTime = 5.91 s  ClockTime = 6 s

Time = 56

         Steady solver/PNP-NS Iteration      # 1
BiCGStab:  Solving for PNP, Initial residual = (0.0132564 0.0205812 5.81691e-15), Final residual = (2.677e-26 4.08594e-26 6.76223e-26), No Iterations 114
maxResidual = 0.0205812

ExecutionTime = 6.02 s  ClockTime = 6 s

Time = 57

         Steady solver/PNP-NS Iteration      # 1
BiCGStab:  Solving for PNP, Initial residual = (0.032186 0.0491 1.33626e-14), Final residual = (1.14337e-26 1.74525e-26 2.88892e-26), No Iterations 114
maxResidual = 0.0491

ExecutionTime = 6.13 s  ClockTime = 6 s

Time = 58

         Steady solver/PNP-NS Iteration      # 1
BiCGStab:  Solving for PNP, Initial residual = (0.0129914 0.0201714 5.77321e-15), Final residual = (3.16391e-26 4.83023e-26 8.00715e-26), No Iterations 105
maxResidual = 0.0201714

ExecutionTime = 6.23 s  ClockTime = 6 s

Time = 59

         Steady solver/PNP-NS Iteration      # 1
BiCGStab:  Solving for PNP, Initial residual = (0.0307644 0.0469201 1.36404e-14), Final residual = (2.03998e-26 3.11379e-26 5.15409e-26), No Iterations 105
maxResidual = 0.0469201

ExecutionTime = 6.34 s  ClockTime = 6 s

Time = 60

         Steady solver/PNP-NS Iteration      # 1
BiCGStab:  Solving for PNP, Initial residual = (0.0127307 0.0197681 6.1101e-15), Final residual = (3.03314e-26 4.62934e-26 7.66247e-26), No Iterations 103
maxResidual = 0.0197681

ExecutionTime = 6.44 s  ClockTime = 7 s

Time = 61

         Steady solver/PNP-NS Iteration      # 1
BiCGStab:  Solving for PNP, Initial residual = (0.0294294 0.0448731 1.26834e-14), Final residual = (2.30321e-26 3.51561e-26 5.81866e-26), No Iterations 110
maxResidual = 0.0448731

ExecutionTime = 6.55 s  ClockTime = 7 s

Time = 62

         Steady solver/PNP-NS Iteration      # 1
BiCGStab:  Solving for PNP, Initial residual = (0.0124742 0.0193714 5.95494e-15), Final residual = (2.01633e-26 3.07728e-26 5.09444e-26), No Iterations 110
maxResidual = 0.0193714

ExecutionTime = 6.66 s  ClockTime = 7 s

Time = 63

         Steady solver/PNP-NS Iteration      # 1
BiCGStab:  Solving for PNP, Initial residual = (0.0281739 0.0429482 1.30786e-14), Final residual = (1.96861e-26 3.00497e-26 4.97421e-26), No Iterations 104
maxResidual = 0.0429482

ExecutionTime = 6.76 s  ClockTime = 7 s

Time = 64

         Steady solver/PNP-NS Iteration      # 1
BiCGStab:  Solving for PNP, Initial residual = (0.0122219 0.0189811 5.97874e-15), Final residual = (1.59371e-26 2.43203e-26 4.02916e-26), No Iterations 107
maxResidual = 0.0189811

ExecutionTime = 6.87 s  ClockTime = 7 s

Time = 65

         Steady solver/PNP-NS Iteration      # 1
BiCGStab:  Solving for PNP, Initial residual = (0.0269915 0.0411357 1.35896e-14), Final residual = (1.57611e-26 2.40652e-26 3.98314e-26), No Iterations 112
maxResidual = 0.0411357

ExecutionTime = 6.98 s  ClockTime = 7 s

Time = 66

         Steady solver/PNP-NS Iteration      # 1
BiCGStab:  Solving for PNP, Initial residual = (0.0119738 0.0185972 6.04361e-15), Final residual = (3.01502e-26 4.60296e-26 7.61794e-26), No Iterations 106
maxResidual = 0.0185972

ExecutionTime = 7.08 s  ClockTime = 7 s

Time = 67

         Steady solver/PNP-NS Iteration      # 1
BiCGStab:  Solving for PNP, Initial residual = (0.0258764 0.0394272 1.27681e-14), Final residual = (2.45508e-26 3.74752e-26 6.20517e-26), No Iterations 105
maxResidual = 0.0394272

ExecutionTime = 7.18 s  ClockTime = 7 s

Time = 68

         Steady solver/PNP-NS Iteration      # 1
BiCGStab:  Solving for PNP, Initial residual = (0.01173 0.0182197 6.18254e-15), Final residual = (2.02578e-26 3.09802e-26 5.12627e-26), No Iterations 107
maxResidual = 0.0182197

ExecutionTime = 7.28 s  ClockTime = 7 s

Time = 69

         Steady solver/PNP-NS Iteration      # 1
BiCGStab:  Solving for PNP, Initial residual = (0.0248234 0.037814 1.33587e-14), Final residual = (3.08846e-26 4.7141e-26 7.80333e-26), No Iterations 104
maxResidual = 0.037814

ExecutionTime = 7.38 s  ClockTime = 8 s

Time = 70

         Steady solver/PNP-NS Iteration      # 1
BiCGStab:  Solving for PNP, Initial residual = (0.0114903 0.0178485 6.33882e-15), Final residual = (2.22639e-26 3.39808e-26 5.62425e-26), No Iterations 110
maxResidual = 0.0178485

ExecutionTime = 7.5 s  ClockTime = 8 s

Time = 71

         Steady solver/PNP-NS Iteration      # 1
BiCGStab:  Solving for PNP, Initial residual = (0.0238279 0.0362892 1.27431e-14), Final residual = (1.16073e-26 1.77181e-26 2.93308e-26), No Iterations 107
maxResidual = 0.0362892

ExecutionTime = 7.61 s  ClockTime = 8 s

Time = 72

         Steady solver/PNP-NS Iteration      # 1
BiCGStab:  Solving for PNP, Initial residual = (0.0112547 0.0174836 6.26621e-15), Final residual = (2.68927e-26 4.10454e-26 6.7938e-26), No Iterations 107
maxResidual = 0.0174836

ExecutionTime = 7.7 s  ClockTime = 8 s

Time = 73

         Steady solver/PNP-NS Iteration      # 1
BiCGStab:  Solving for PNP, Initial residual = (0.0228857 0.0348462 1.25702e-14), Final residual = (1.16724e-26 1.78179e-26 2.95115e-26), No Iterations 107
maxResidual = 0.0348462

ExecutionTime = 7.82 s  ClockTime = 8 s

Time = 74

         Steady solver/PNP-NS Iteration      # 1
BiCGStab:  Solving for PNP, Initial residual = (0.0110231 0.0171249 6.3917e-15), Final residual = (3.07255e-26 4.68972e-26 7.7643e-26), No Iterations 105
maxResidual = 0.0171249

ExecutionTime = 7.92 s  ClockTime = 8 s

Time = 75

         Steady solver/PNP-NS Iteration      # 1
BiCGStab:  Solving for PNP, Initial residual = (0.021993 0.0334793 1.24859e-14), Final residual = (2.12796e-26 3.24821e-26 5.37648e-26), No Iterations 106
maxResidual = 0.0334793

ExecutionTime = 8.02 s  ClockTime = 8 s

Time = 76

         Steady solver/PNP-NS Iteration      # 1
BiCGStab:  Solving for PNP, Initial residual = (0.0107956 0.0167724 6.1397e-15), Final residual = (2.11498e-26 3.22864e-26 5.34425e-26), No Iterations 105
maxResidual = 0.0167724

ExecutionTime = 8.12 s  ClockTime = 8 s

Time = 77

         Steady solver/PNP-NS Iteration      # 1
BiCGStab:  Solving for PNP, Initial residual = (0.0211463 0.0321833 1.23147e-14), Final residual = (1.3293e-26 2.02909e-26 3.35892e-26), No Iterations 105
maxResidual = 0.0321833

ExecutionTime = 8.23 s  ClockTime = 8 s

Time = 78

         Steady solver/PNP-NS Iteration      # 1
BiCGStab:  Solving for PNP, Initial residual = (0.010572 0.016426 6.4563e-15), Final residual = (2.73289e-26 4.15586e-26 6.91374e-26), No Iterations 108
maxResidual = 0.016426

ExecutionTime = 8.33 s  ClockTime = 8 s

Time = 79

         Steady solver/PNP-NS Iteration      # 1
BiCGStab:  Solving for PNP, Initial residual = (0.0203427 0.0309532 1.21029e-14), Final residual = (1.21542e-26 1.85524e-26 3.07098e-26), No Iterations 106
maxResidual = 0.0309532

ExecutionTime = 8.43 s  ClockTime = 9 s

Time = 80

         Steady solver/PNP-NS Iteration      # 1
BiCGStab:  Solving for PNP, Initial residual = (0.0103524 0.0160857 6.50893e-15), Final residual = (2.82206e-26 4.30717e-26 7.13163e-26), No Iterations 109
maxResidual = 0.0160857

ExecutionTime = 8.55 s  ClockTime = 9 s

Time = 81

         Steady solver/PNP-NS Iteration      # 1
BiCGStab:  Solving for PNP, Initial residual = (0.019579 0.0297845 1.21731e-14), Final residual = (1.2198e-26 1.86187e-26 3.08154e-26), No Iterations 107
maxResidual = 0.0297845

ExecutionTime = 8.65 s  ClockTime = 9 s

Time = 82

         Steady solver/PNP-NS Iteration      # 1
BiCGStab:  Solving for PNP, Initial residual = (0.0101368 0.0157515 6.52838e-15), Final residual = (2.65407e-26 4.05084e-26 6.70592e-26), No Iterations 104
maxResidual = 0.0157515

ExecutionTime = 8.75 s  ClockTime = 9 s

Time = 83

         Steady solver/PNP-NS Iteration      # 1
BiCGStab:  Solving for PNP, Initial residual = (0.0188527 0.0286733 1.18705e-14), Final residual = (1.63176e-26 2.49068e-26 4.12377e-26), No Iterations 106
maxResidual = 0.0286733

ExecutionTime = 8.86 s  ClockTime = 9 s

Time = 84

         Steady solver/PNP-NS Iteration      # 1
BiCGStab:  Solving for PNP, Initial residual = (0.00992495 0.0154232 6.57763e-15), Final residual = (2.49104e-26 3.80197e-26 6.29263e-26), No Iterations 112
maxResidual = 0.0154232

ExecutionTime = 8.96 s  ClockTime = 9 s

Time = 85

         Steady solver/PNP-NS Iteration      # 1
BiCGStab:  Solving for PNP, Initial residual = (0.0181614 0.0276157 1.19237e-14), Final residual = (2.57066e-26 3.92452e-26 6.49829e-26), No Iterations 102
maxResidual = 0.0276157

ExecutionTime = 9.06 s  ClockTime = 9 s

Time = 86

         Steady solver/PNP-NS Iteration      # 1
BiCGStab:  Solving for PNP, Initial residual = (0.00971693 0.0151007 6.92024e-15), Final residual = (2.2989e-26 3.50854e-26 5.81281e-26), No Iterations 109
maxResidual = 0.0151007

ExecutionTime = 9.18 s  ClockTime = 9 s

Time = 87

         Steady solver/PNP-NS Iteration      # 1
BiCGStab:  Solving for PNP, Initial residual = (0.0175027 0.0266083 1.17773e-14), Final residual = (1.44624e-26 2.2075e-26 3.65363e-26), No Iterations 106
maxResidual = 0.0266083

ExecutionTime = 9.28 s  ClockTime = 9 s

Time = 88

         Steady solver/PNP-NS Iteration      # 1
BiCGStab:  Solving for PNP, Initial residual = (0.00951269 0.014784 6.53383e-15), Final residual = (2.84705e-26 4.34581e-26 7.20124e-26), No Iterations 107
maxResidual = 0.014784

ExecutionTime = 9.39 s  ClockTime = 10 s

Time = 89

         Steady solver/PNP-NS Iteration      # 1
BiCGStab:  Solving for PNP, Initial residual = (0.0168747 0.025648 1.11187e-14), Final residual = (2.28754e-26 3.49184e-26 5.77939e-26), No Iterations 104
maxResidual = 0.025648

ExecutionTime = 9.49 s  ClockTime = 10 s

Time = 90

         Steady solver/PNP-NS Iteration      # 1
BiCGStab:  Solving for PNP, Initial residual = (0.00931219 0.0144731 6.66925e-15), Final residual = (2.16404e-26 3.30294e-26 5.46806e-26), No Iterations 109
maxResidual = 0.0144731

ExecutionTime = 9.6 s  ClockTime = 10 s

Time = 91

         Steady solver/PNP-NS Iteration      # 1
BiCGStab:  Solving for PNP, Initial residual = (0.0162759 0.0247321 1.17605e-14), Final residual = (1.37796e-26 2.10338e-26 3.4824e-26), No Iterations 106
maxResidual = 0.0247321

ExecutionTime = 9.7 s  ClockTime = 10 s

Time = 92

         Steady solver/PNP-NS Iteration      # 1
BiCGStab:  Solving for PNP, Initial residual = (0.00911542 0.0141679 3.66827e-14), Final residual = (2.11392e-26 3.22645e-26 5.34121e-26), No Iterations 105
maxResidual = 0.0141679

ExecutionTime = 9.81 s  ClockTime = 10 s

Time = 93

         Steady solver/PNP-NS Iteration      # 1
BiCGStab:  Solving for PNP, Initial residual = (0.0157044 0.0238579 1.10844e-14), Final residual = (2.46959e-26 3.76951e-26 6.23999e-26), No Iterations 106
maxResidual = 0.0238579

ExecutionTime = 9.92 s  ClockTime = 10 s

Time = 94

         Steady solver/PNP-NS Iteration      # 1
BiCGStab:  Solving for PNP, Initial residual = (0.00892234 0.0138684 6.66636e-15), Final residual = (2.93293e-26 4.47644e-26 7.41305e-26), No Iterations 105
maxResidual = 0.0138684

ExecutionTime = 10.01 s  ClockTime = 10 s

Time = 95

         Steady solver/PNP-NS Iteration      # 1
BiCGStab:  Solving for PNP, Initial residual = (0.0151586 0.023023 1.14721e-14), Final residual = (1.35944e-26 2.075e-26 3.43566e-26), No Iterations 106
maxResidual = 0.023023

ExecutionTime = 10.11 s  ClockTime = 10 s

Time = 96

         Steady solver/PNP-NS Iteration      # 1
BiCGStab:  Solving for PNP, Initial residual = (0.00873292 0.0135747 6.68987e-15), Final residual = (2.03329e-26 3.10337e-26 5.13768e-26), No Iterations 108
maxResidual = 0.0135747

ExecutionTime = 10.22 s  ClockTime = 10 s

Time = 97

         Steady solver/PNP-NS Iteration      # 1
BiCGStab:  Solving for PNP, Initial residual = (0.0146368 0.0222252 1.15185e-14), Final residual = (2.92677e-26 4.4675e-26 7.3947e-26), No Iterations 104
maxResidual = 0.0222252

ExecutionTime = 10.33 s  ClockTime = 11 s

Time = 98

         Steady solver/PNP-NS Iteration      # 1
BiCGStab:  Solving for PNP, Initial residual = (0.00854713 0.0132865 6.83462e-15), Final residual = (1.36062e-26 2.07669e-26 3.43856e-26), No Iterations 109
maxResidual = 0.0132865

ExecutionTime = 10.43 s  ClockTime = 11 s

Time = 99

         Steady solver/PNP-NS Iteration      # 1
BiCGStab:  Solving for PNP, Initial residual = (0.0141378 0.0214625 1.09676e-14), Final residual = (3.13877e-26 4.79079e-26 7.93204e-26), No Iterations 104
maxResidual = 0.0214625

ExecutionTime = 10.53 s  ClockTime = 11 s

Time = 100

         Steady solver/PNP-NS Iteration      # 1
BiCGStab:  Solving for PNP, Initial residual = (0.00836493 0.0130038 7.02826e-15), Final residual = (2.55597e-26 3.90103e-26 6.45758e-26), No Iterations 106
maxResidual = 0.0130038

ExecutionTime = 10.65 s  ClockTime = 11 s

Time = 101

         Steady solver/PNP-NS Iteration      # 1
BiCGStab:  Solving for PNP, Initial residual = (0.0136603 0.0207329 1.11112e-14), Final residual = (2.63363e-26 4.01995e-26 6.65973e-26), No Iterations 106
maxResidual = 0.0207329

ExecutionTime = 10.75 s  ClockTime = 11 s

Time = 102

         Steady solver/PNP-NS Iteration      # 1
BiCGStab:  Solving for PNP, Initial residual = (0.0081863 0.0127267 6.86126e-15), Final residual = (2.90993e-27 4.44142e-27 7.35255e-27), No Iterations 115
maxResidual = 0.0127267

ExecutionTime = 10.86 s  ClockTime = 11 s

Time = 103

         Steady solver/PNP-NS Iteration      # 1
BiCGStab:  Solving for PNP, Initial residual = (0.0132032 0.0200346 1.07972e-14), Final residual = (1.90073e-26 2.90124e-26 4.80211e-26), No Iterations 104
maxResidual = 0.0200346

ExecutionTime = 10.97 s  ClockTime = 11 s

Time = 104

         Steady solver/PNP-NS Iteration      # 1
BiCGStab:  Solving for PNP, Initial residual = (0.00801118 0.0124551 6.83303e-15), Final residual = (2.69018e-26 4.10698e-26 6.80056e-26), No Iterations 106
maxResidual = 0.0124551

ExecutionTime = 11.07 s  ClockTime = 11 s

Time = 105

         Steady solver/PNP-NS Iteration      # 1
BiCGStab:  Solving for PNP, Initial residual = (0.0127654 0.019366 1.08661e-14), Final residual = (1.77727e-26 2.71299e-26 4.49674e-26), No Iterations 104
maxResidual = 0.019366

ExecutionTime = 11.17 s  ClockTime = 11 s

Time = 106

         Steady solver/PNP-NS Iteration      # 1
BiCGStab:  Solving for PNP, Initial residual = (0.00783956 0.0121888 6.96828e-15), Final residual = (3.1397e-26 4.79088e-26 7.95328e-26), No Iterations 112
maxResidual = 0.0121888

ExecutionTime = 11.28 s  ClockTime = 12 s

Time = 107

         Steady solver/PNP-NS Iteration      # 1
BiCGStab:  Solving for PNP, Initial residual = (0.0123459 0.0187254 1.09523e-14), Final residual = (1.77149e-26 2.70393e-26 4.47751e-26), No Iterations 106
maxResidual = 0.0187254

ExecutionTime = 11.38 s  ClockTime = 12 s

Time = 108

         Steady solver/PNP-NS Iteration      # 1
BiCGStab:  Solving for PNP, Initial residual = (0.00767137 0.0119278 7.2689e-15), Final residual = (2.90551e-26 4.43459e-26 7.34005e-26), No Iterations 107
maxResidual = 0.0119278

ExecutionTime = 11.48 s  ClockTime = 12 s

Time = 109

         Steady solver/PNP-NS Iteration      # 1
BiCGStab:  Solving for PNP, Initial residual = (0.0119437 0.0181115 1.06973e-14), Final residual = (2.6781e-26 4.08771e-26 6.77197e-26), No Iterations 110
maxResidual = 0.0181115

ExecutionTime = 11.59 s  ClockTime = 12 s

Time = 110

         Steady solver/PNP-NS Iteration      # 1
BiCGStab:  Solving for PNP, Initial residual = (0.00750659 0.0116722 6.93364e-15), Final residual = (3.09806e-26 4.72852e-26 7.82824e-26), No Iterations 105
maxResidual = 0.0116722

ExecutionTime = 11.71 s  ClockTime = 12 s

Time = 111

         Steady solver/PNP-NS Iteration      # 1
BiCGStab:  Solving for PNP, Initial residual = (0.011558 0.0175228 1.04069e-14), Final residual = (2.23021e-26 3.40419e-26 5.63737e-26), No Iterations 104
maxResidual = 0.0175228

ExecutionTime = 11.81 s  ClockTime = 12 s

Time = 112

         Steady solver/PNP-NS Iteration      # 1
BiCGStab:  Solving for PNP, Initial residual = (0.00734515 0.0114217 7.10054e-15), Final residual = (2.8469e-26 4.34512e-26 7.1931e-26), No Iterations 105
maxResidual = 0.0114217

ExecutionTime = 11.91 s  ClockTime = 12 s

Time = 113

         Steady solver/PNP-NS Iteration      # 1
BiCGStab:  Solving for PNP, Initial residual = (0.0111878 0.016958 1.07904e-14), Final residual = (2.92731e-26 4.46805e-26 7.39891e-26), No Iterations 107
maxResidual = 0.016958

ExecutionTime = 12.01 s  ClockTime = 12 s

Time = 114

         Steady solver/PNP-NS Iteration      # 1
BiCGStab:  Solving for PNP, Initial residual = (0.007187 0.0111762 7.00561e-15), Final residual = (2.22933e-26 3.40439e-26 5.64316e-26), No Iterations 106
maxResidual = 0.0111762

ExecutionTime = 12.12 s  ClockTime = 12 s

Time = 115

         Steady solver/PNP-NS Iteration      # 1
BiCGStab:  Solving for PNP, Initial residual = (0.0108323 0.0164159 1.07783e-14), Final residual = (2.86471e-26 4.37261e-26 7.23837e-26), No Iterations 110
maxResidual = 0.0164159

ExecutionTime = 12.22 s  ClockTime = 13 s

Time = 116

         Steady solver/PNP-NS Iteration      # 1
BiCGStab:  Solving for PNP, Initial residual = (0.00703207 0.0109358 6.96762e-15), Final residual = (2.53137e-26 3.8635e-26 6.3961e-26), No Iterations 105
maxResidual = 0.0109358

ExecutionTime = 12.33 s  ClockTime = 13 s

Time = 117

         Steady solver/PNP-NS Iteration      # 1
BiCGStab:  Solving for PNP, Initial residual = (0.0104908 0.0158953 1.05625e-14), Final residual = (2.71676e-26 4.14693e-26 6.87294e-26), No Iterations 111
maxResidual = 0.0158953

ExecutionTime = 12.43 s  ClockTime = 13 s

Time = 118

         Steady solver/PNP-NS Iteration      # 1
BiCGStab:  Solving for PNP, Initial residual = (0.00688031 0.0107002 7.05394e-15), Final residual = (1.68375e-26 2.57383e-26 4.25727e-26), No Iterations 106
maxResidual = 0.0107002

ExecutionTime = 12.53 s  ClockTime = 13 s

Time = 119

         Steady solver/PNP-NS Iteration      # 1
BiCGStab:  Solving for PNP, Initial residual = (0.0101627 0.0153951 1.09661e-14), Final residual = (1.15063e-26 1.75639e-26 2.91388e-26), No Iterations 106
maxResidual = 0.0153951

ExecutionTime = 12.64 s  ClockTime = 13 s

Time = 120

         Steady solver/PNP-NS Iteration      # 1
BiCGStab:  Solving for PNP, Initial residual = (0.00673169 0.0104695 7.14472e-15), Final residual = (2.15493e-26 3.28787e-26 5.46705e-26), No Iterations 109
maxResidual = 0.0104695

ExecutionTime = 12.75 s  ClockTime = 13 s

Time = 121

         Steady solver/PNP-NS Iteration      # 1
BiCGStab:  Solving for PNP, Initial residual = (0.00984719 0.0149143 1.04153e-14), Final residual = (1.30331e-26 1.98931e-26 3.29875e-26), No Iterations 105
maxResidual = 0.0149143

ExecutionTime = 12.87 s  ClockTime = 13 s

Time = 122

         Steady solver/PNP-NS Iteration      # 1
BiCGStab:  Solving for PNP, Initial residual = (0.00658615 0.0102436 7.19703e-15), Final residual = (1.79328e-26 2.73906e-26 4.52935e-26), No Iterations 106
maxResidual = 0.0102436

ExecutionTime = 12.97 s  ClockTime = 13 s

Time = 123

         Steady solver/PNP-NS Iteration      # 1
BiCGStab:  Solving for PNP, Initial residual = (0.00954375 0.014452 1.05039e-14), Final residual = (1.52578e-26 2.32892e-26 3.86053e-26), No Iterations 107
maxResidual = 0.014452

ExecutionTime = 13.08 s  ClockTime = 13 s

Time = 124

         Steady solver/PNP-NS Iteration      # 1
BiCGStab:  Solving for PNP, Initial residual = (0.00644363 0.0100223 7.20706e-15), Final residual = (3.03601e-26 4.63362e-26 7.67987e-26), No Iterations 106
maxResidual = 0.0100223

ExecutionTime = 13.18 s  ClockTime = 14 s

Time = 125

         Steady solver/PNP-NS Iteration      # 1
BiCGStab:  Solving for PNP, Initial residual = (0.0092519 0.0140074 1.04205e-14), Final residual = (2.57116e-26 3.92456e-26 6.50746e-26), No Iterations 109
maxResidual = 0.0140074

ExecutionTime = 13.28 s  ClockTime = 14 s

Time = 126

         Steady solver/PNP-NS Iteration      # 1
BiCGStab:  Solving for PNP, Initial residual = (0.0063041 0.0098057 7.27513e-15), Final residual = (2.13423e-26 3.23778e-26 5.5274e-26), No Iterations 106
maxResidual = 0.0098057

ExecutionTime = 13.38 s  ClockTime = 14 s

Time = 127

         Steady solver/PNP-NS Iteration      # 1
BiCGStab:  Solving for PNP, Initial residual = (0.0089711 0.0135795 1.05238e-14), Final residual = (1.81645e-26 2.77254e-26 4.59101e-26), No Iterations 105
maxResidual = 0.0135795

ExecutionTime = 13.48 s  ClockTime = 14 s

Time = 128

         Steady solver/PNP-NS Iteration      # 1
BiCGStab:  Solving for PNP, Initial residual = (0.0061675 0.0095936 7.29093e-15), Final residual = (2.32069e-26 3.54197e-26 5.86314e-26), No Iterations 112
maxResidual = 0.0095936

ExecutionTime = 13.59 s  ClockTime = 14 s

Time = 129

         Steady solver/PNP-NS Iteration      # 1
BiCGStab:  Solving for PNP, Initial residual = (0.00870083 0.0131676 1.09096e-14), Final residual = (3.08734e-26 4.71238e-26 7.80065e-26), No Iterations 105
maxResidual = 0.0131676

ExecutionTime = 13.69 s  ClockTime = 14 s

Time = 130

         Steady solver/PNP-NS Iteration      # 1
BiCGStab:  Solving for PNP, Initial residual = (0.00603378 0.00938598 7.34145e-15), Final residual = (2.8388e-26 4.33288e-26 7.17574e-26), No Iterations 103
maxResidual = 0.00938598

ExecutionTime = 13.8 s  ClockTime = 14 s

Time = 131

         Steady solver/PNP-NS Iteration      # 1
BiCGStab:  Solving for PNP, Initial residual = (0.00844055 0.012771 1.08186e-14), Final residual = (1.71417e-26 2.61694e-26 4.36919e-26), No Iterations 105
maxResidual = 0.012771

ExecutionTime = 13.9 s  ClockTime = 14 s

Time = 132

         Steady solver/PNP-NS Iteration      # 1
BiCGStab:  Solving for PNP, Initial residual = (0.0059029 0.00918274 7.11294e-15), Final residual = (2.94888e-26 4.50082e-26 7.45326e-26), No Iterations 105
maxResidual = 0.00918274

ExecutionTime = 14 s  ClockTime = 14 s

Time = 133

         Steady solver/PNP-NS Iteration      # 1
BiCGStab:  Solving for PNP, Initial residual = (0.00818979 0.012389 1.03834e-14), Final residual = (1.69591e-26 2.58868e-26 4.29642e-26), No Iterations 105
maxResidual = 0.012389

ExecutionTime = 14.11 s  ClockTime = 15 s

Time = 134

         Steady solver/PNP-NS Iteration      # 1
BiCGStab:  Solving for PNP, Initial residual = (0.00577481 0.00898383 7.21338e-15), Final residual = (1.74953e-26 2.67025e-26 4.42559e-26), No Iterations 112
maxResidual = 0.00898383

ExecutionTime = 14.21 s  ClockTime = 15 s

Time = 135

         Steady solver/PNP-NS Iteration      # 1
BiCGStab:  Solving for PNP, Initial residual = (0.00794813 0.0120209 9.92767e-15), Final residual = (2.16856e-26 3.31001e-26 5.48239e-26), No Iterations 102
maxResidual = 0.0120209

ExecutionTime = 14.32 s  ClockTime = 15 s

Time = 136

         Steady solver/PNP-NS Iteration      # 1
BiCGStab:  Solving for PNP, Initial residual = (0.00564946 0.00878915 7.35621e-15), Final residual = (2.62966e-26 4.01342e-26 6.65081e-26), No Iterations 106
maxResidual = 0.00878915

ExecutionTime = 14.42 s  ClockTime = 15 s

Time = 137

         Steady solver/PNP-NS Iteration      # 1
BiCGStab:  Solving for PNP, Initial residual = (0.00771517 0.0116661 1.01417e-14), Final residual = (1.70458e-26 2.60176e-26 4.30788e-26), No Iterations 106
maxResidual = 0.0116661

ExecutionTime = 14.52 s  ClockTime = 15 s

Time = 138

         Steady solver/PNP-NS Iteration      # 1
BiCGStab:  Solving for PNP, Initial residual = (0.0055268 0.00859866 7.33317e-15), Final residual = (3.03915e-26 4.6386e-26 7.67973e-26), No Iterations 112
maxResidual = 0.00859866

ExecutionTime = 14.63 s  ClockTime = 15 s

Time = 139

         Steady solver/PNP-NS Iteration      # 1
BiCGStab:  Solving for PNP, Initial residual = (0.00749052 0.0113241 1.03595e-14), Final residual = (1.0086e-26 1.5395e-26 2.55029e-26), No Iterations 107
maxResidual = 0.0113241

ExecutionTime = 14.74 s  ClockTime = 15 s

Time = 140

         Steady solver/PNP-NS Iteration      # 1
BiCGStab:  Solving for PNP, Initial residual = (0.00540681 0.00841226 7.76699e-15), Final residual = (2.96749e-26 4.52905e-26 7.4958e-26), No Iterations 104
maxResidual = 0.00841226

ExecutionTime = 14.84 s  ClockTime = 15 s

Time = 141

         Steady solver/PNP-NS Iteration      # 1
BiCGStab:  Solving for PNP, Initial residual = (0.00727383 0.0109943 1.03302e-14), Final residual = (2.59735e-26 3.96448e-26 6.57238e-26), No Iterations 105
maxResidual = 0.0109943

ExecutionTime = 14.95 s  ClockTime = 15 s

Time = 142

         Steady solver/PNP-NS Iteration      # 1
BiCGStab:  Solving for PNP, Initial residual = (0.00528942 0.00822989 7.56838e-15), Final residual = (1.31098e-26 2.00095e-26 3.31321e-26), No Iterations 105
maxResidual = 0.00822989

ExecutionTime = 15.05 s  ClockTime = 16 s

Time = 143

         Steady solver/PNP-NS Iteration      # 1
BiCGStab:  Solving for PNP, Initial residual = (0.00706476 0.0106761 1.06847e-14), Final residual = (2.20177e-26 3.36066e-26 5.56422e-26), No Iterations 105
maxResidual = 0.0106761

ExecutionTime = 15.15 s  ClockTime = 16 s

Time = 144

         Steady solver/PNP-NS Iteration      # 1
BiCGStab:  Solving for PNP, Initial residual = (0.00517458 0.00805149 7.44709e-15), Final residual = (1.66586e-26 2.54258e-26 4.20989e-26), No Iterations 105
maxResidual = 0.00805149

ExecutionTime = 15.26 s  ClockTime = 16 s

Time = 145

         Steady solver/PNP-NS Iteration      # 1
BiCGStab:  Solving for PNP, Initial residual = (0.00686298 0.010369 1.03314e-14), Final residual = (1.84291e-26 2.81291e-26 4.66115e-26), No Iterations 104
maxResidual = 0.010369

ExecutionTime = 15.36 s  ClockTime = 16 s

Time = 146

         Steady solver/PNP-NS Iteration      # 1
BiCGStab:  Solving for PNP, Initial residual = (0.00506226 0.00787697 7.44407e-15), Final residual = (1.95166e-26 2.97835e-26 4.93198e-26), No Iterations 106
maxResidual = 0.00787697

ExecutionTime = 15.46 s  ClockTime = 16 s

Time = 147

         Steady solver/PNP-NS Iteration      # 1
BiCGStab:  Solving for PNP, Initial residual = (0.00666819 0.0100727 1.03073e-14), Final residual = (3.04411e-26 4.64624e-26 7.71728e-26), No Iterations 111
maxResidual = 0.0100727

ExecutionTime = 15.57 s  ClockTime = 16 s

Time = 148

         Steady solver/PNP-NS Iteration      # 1
BiCGStab:  Solving for PNP, Initial residual = (0.00495239 0.00770628 7.59359e-15), Final residual = (2.58191e-26 3.94386e-26 6.52782e-26), No Iterations 104
maxResidual = 0.00770628

ExecutionTime = 15.67 s  ClockTime = 16 s

Time = 149

         Steady solver/PNP-NS Iteration      # 1
BiCGStab:  Solving for PNP, Initial residual = (0.00648011 0.00978658 1.01554e-14), Final residual = (1.94734e-26 2.97232e-26 4.92592e-26), No Iterations 104
maxResidual = 0.00978658

ExecutionTime = 15.76 s  ClockTime = 16 s

Time = 150

         Steady solver/PNP-NS Iteration      # 1
BiCGStab:  Solving for PNP, Initial residual = (0.00484494 0.00753934 7.53641e-15), Final residual = (2.26637e-26 3.45791e-26 5.73375e-26), No Iterations 112
maxResidual = 0.00753934

ExecutionTime = 15.89 s  ClockTime = 16 s

Time = 151

         Steady solver/PNP-NS Iteration      # 1
BiCGStab:  Solving for PNP, Initial residual = (0.00629846 0.00951029 9.90939e-15), Final residual = (3.1121e-26 4.75005e-26 7.87535e-26), No Iterations 103
maxResidual = 0.00951029

ExecutionTime = 15.99 s  ClockTime = 16 s

Time = 152

         Steady solver/PNP-NS Iteration      # 1
BiCGStab:  Solving for PNP, Initial residual = (0.00473986 0.00737609 7.45898e-15), Final residual = (1.99299e-26 3.04189e-26 5.03959e-26), No Iterations 108
maxResidual = 0.00737609

ExecutionTime = 16.09 s  ClockTime = 17 s

Time = 153

         Steady solver/PNP-NS Iteration      # 1
BiCGStab:  Solving for PNP, Initial residual = (0.00612297 0.00924341 9.85074e-15), Final residual = (1.00663e-26 1.53649e-26 2.54829e-26), No Iterations 105
maxResidual = 0.00924341

ExecutionTime = 16.19 s  ClockTime = 17 s

Time = 154

         Steady solver/PNP-NS Iteration      # 1
BiCGStab:  Solving for PNP, Initial residual = (0.00463711 0.00721644 7.51779e-15), Final residual = (3.03566e-26 4.63257e-26 7.67059e-26), No Iterations 110
maxResidual = 0.00721644

ExecutionTime = 16.29 s  ClockTime = 17 s

Time = 155

         Steady solver/PNP-NS Iteration      # 1
BiCGStab:  Solving for PNP, Initial residual = (0.00595339 0.00898557 1.017e-14), Final residual = (1.51502e-26 2.31243e-26 3.82891e-26), No Iterations 106
maxResidual = 0.00898557

ExecutionTime = 16.4 s  ClockTime = 17 s

Time = 156

         Steady solver/PNP-NS Iteration      # 1
BiCGStab:  Solving for PNP, Initial residual = (0.00453664 0.00706032 7.65943e-15), Final residual = (3.99105e-27 6.08126e-27 1.00963e-26), No Iterations 113
maxResidual = 0.00706032

ExecutionTime = 16.51 s  ClockTime = 17 s

Time = 157

         Steady solver/PNP-NS Iteration      # 1
BiCGStab:  Solving for PNP, Initial residual = (0.00578948 0.0087364 1.02164e-14), Final residual = (3.113e-26 4.75153e-26 7.87065e-26), No Iterations 105
maxResidual = 0.0087364

ExecutionTime = 16.6 s  ClockTime = 17 s

Time = 158

         Steady solver/PNP-NS Iteration      # 1
BiCGStab:  Solving for PNP, Initial residual = (0.0044384 0.00690768 7.67965e-15), Final residual = (2.654e-26 4.05181e-26 6.71343e-26), No Iterations 106
maxResidual = 0.00690768

ExecutionTime = 16.7 s  ClockTime = 17 s

Time = 159

         Steady solver/PNP-NS Iteration      # 1
BiCGStab:  Solving for PNP, Initial residual = (0.00563102 0.00849555 9.98206e-15), Final residual = (1.76224e-26 2.68995e-26 4.45697e-26), No Iterations 105
maxResidual = 0.00849555

ExecutionTime = 16.81 s  ClockTime = 17 s

Time = 160

         Steady solver/PNP-NS Iteration      # 1
BiCGStab:  Solving for PNP, Initial residual = (0.00434235 0.00675843 7.59776e-15), Final residual = (1.78624e-26 2.72625e-26 4.51494e-26), No Iterations 112
maxResidual = 0.00675843

ExecutionTime = 16.92 s  ClockTime = 17 s

Time = 161

         Steady solver/PNP-NS Iteration      # 1
BiCGStab:  Solving for PNP, Initial residual = (0.00547779 0.00826269 9.69047e-15), Final residual = (1.50518e-26 2.2974e-26 3.80746e-26), No Iterations 106
maxResidual = 0.00826269

ExecutionTime = 17.03 s  ClockTime = 18 s

Time = 162

         Steady solver/PNP-NS Iteration      # 1
BiCGStab:  Solving for PNP, Initial residual = (0.00424846 0.00661252 7.68391e-15), Final residual = (1.88853e-26 2.88243e-26 4.77576e-26), No Iterations 114
maxResidual = 0.00661252

ExecutionTime = 17.13 s  ClockTime = 18 s

Time = 163

         Steady solver/PNP-NS Iteration      # 1
BiCGStab:  Solving for PNP, Initial residual = (0.00532959 0.00803751 9.93697e-15), Final residual = (2.953e-26 4.50712e-26 7.49765e-26), No Iterations 101
maxResidual = 0.00803751

ExecutionTime = 17.23 s  ClockTime = 18 s

Time = 164

         Steady solver/PNP-NS Iteration      # 1
BiCGStab:  Solving for PNP, Initial residual = (0.00415667 0.00646988 7.6644e-15), Final residual = (3.02528e-26 4.61704e-26 7.67547e-26), No Iterations 104
maxResidual = 0.00646988

ExecutionTime = 17.33 s  ClockTime = 18 s

Time = 165

         Steady solver/PNP-NS Iteration      # 1
BiCGStab:  Solving for PNP, Initial residual = (0.00518621 0.00781972 9.78716e-15), Final residual = (1.89219e-26 2.88809e-26 4.78524e-26), No Iterations 104
maxResidual = 0.00781972

ExecutionTime = 17.43 s  ClockTime = 18 s

Time = 166

         Steady solver/PNP-NS Iteration      # 1
BiCGStab:  Solving for PNP, Initial residual = (0.00406695 0.00633045 7.65802e-15), Final residual = (1.17775e-26 1.79624e-26 3.00533e-26), No Iterations 106
maxResidual = 0.00633045

ExecutionTime = 17.53 s  ClockTime = 18 s

Time = 167

         Steady solver/PNP-NS Iteration      # 1
BiCGStab:  Solving for PNP, Initial residual = (0.00504749 0.00760902 1.00471e-14), Final residual = (1.74363e-26 2.66135e-26 4.41462e-26), No Iterations 105
maxResidual = 0.00760902

ExecutionTime = 17.63 s  ClockTime = 18 s

Time = 168

         Steady solver/PNP-NS Iteration      # 1
BiCGStab:  Solving for PNP, Initial residual = (0.00397925 0.00619415 7.53266e-15), Final residual = (3.01409e-26 4.60033e-26 7.62076e-26), No Iterations 109
maxResidual = 0.00619415

ExecutionTime = 17.73 s  ClockTime = 18 s

Time = 169

         Steady solver/PNP-NS Iteration      # 1
BiCGStab:  Solving for PNP, Initial residual = (0.00491323 0.00740514 9.55135e-15), Final residual = (2.03686e-26 3.10894e-26 5.14952e-26), No Iterations 103
maxResidual = 0.00740514

ExecutionTime = 17.83 s  ClockTime = 18 s

Time = 170

         Steady solver/PNP-NS Iteration      # 1
BiCGStab:  Solving for PNP, Initial residual = (0.00389354 0.00606093 7.45815e-15), Final residual = (5.72789e-27 8.74246e-27 1.45012e-26), No Iterations 114
maxResidual = 0.00606093

ExecutionTime = 17.95 s  ClockTime = 19 s

Time = 171

         Steady solver/PNP-NS Iteration      # 1
BiCGStab:  Solving for PNP, Initial residual = (0.00478328 0.00720784 9.54667e-15), Final residual = (2.95627e-26 4.51231e-26 7.48004e-26), No Iterations 105
maxResidual = 0.00720784

ExecutionTime = 18.05 s  ClockTime = 19 s

Time = 172

         Steady solver/PNP-NS Iteration      # 1
BiCGStab:  Solving for PNP, Initial residual = (0.00380976 0.00593072 7.58133e-15), Final residual = (2.24544e-26 3.42701e-26 5.67892e-26), No Iterations 108
maxResidual = 0.00593072

ExecutionTime = 18.15 s  ClockTime = 19 s

Time = 173

         Steady solver/PNP-NS Iteration      # 1
BiCGStab:  Solving for PNP, Initial residual = (0.00465746 0.00701685 9.33244e-15), Final residual = (1.48388e-26 2.26498e-26 3.75453e-26), No Iterations 103
maxResidual = 0.00701685

ExecutionTime = 18.25 s  ClockTime = 19 s

Time = 174

         Steady solver/PNP-NS Iteration      # 1
BiCGStab:  Solving for PNP, Initial residual = (0.00372789 0.00580347 7.63939e-15), Final residual = (2.63441e-26 4.02084e-26 6.66271e-26), No Iterations 106
maxResidual = 0.00580347

ExecutionTime = 18.35 s  ClockTime = 19 s

Time = 175

         Steady solver/PNP-NS Iteration      # 1
BiCGStab:  Solving for PNP, Initial residual = (0.00453563 0.00683195 9.31715e-15), Final residual = (1.89265e-26 2.88887e-26 4.78768e-26), No Iterations 103
maxResidual = 0.00683195

ExecutionTime = 18.45 s  ClockTime = 19 s

Time = 176

         Steady solver/PNP-NS Iteration      # 1
BiCGStab:  Solving for PNP, Initial residual = (0.00364789 0.00567911 7.56995e-15), Final residual = (1.48021e-26 2.25958e-26 3.77136e-26), No Iterations 110
maxResidual = 0.00567911

ExecutionTime = 18.56 s  ClockTime = 19 s

Time = 177

         Steady solver/PNP-NS Iteration      # 1
BiCGStab:  Solving for PNP, Initial residual = (0.00441764 0.00665291 9.50933e-15), Final residual = (1.80947e-26 2.76187e-26 4.57421e-26), No Iterations 105
maxResidual = 0.00665291

ExecutionTime = 18.65 s  ClockTime = 19 s

Time = 178

         Steady solver/PNP-NS Iteration      # 1
BiCGStab:  Solving for PNP, Initial residual = (0.00356971 0.00555759 7.60062e-15), Final residual = (2.96697e-26 4.52843e-26 7.49755e-26), No Iterations 107
maxResidual = 0.00555759

ExecutionTime = 18.76 s  ClockTime = 19 s

Time = 179

         Steady solver/PNP-NS Iteration      # 1
BiCGStab:  Solving for PNP, Initial residual = (0.00430335 0.00647951 9.44472e-15), Final residual = (2.49408e-26 3.80674e-26 6.31612e-26), No Iterations 104
maxResidual = 0.00647951

ExecutionTime = 18.87 s  ClockTime = 19 s

Time = 180

         Steady solver/PNP-NS Iteration      # 1
BiCGStab:  Solving for PNP, Initial residual = (0.00349332 0.00543883 7.73916e-15), Final residual = (2.94323e-26 4.49063e-26 7.45664e-26), No Iterations 105
maxResidual = 0.00543883

ExecutionTime = 18.97 s  ClockTime = 20 s

Time = 181

         Steady solver/PNP-NS Iteration      # 1
BiCGStab:  Solving for PNP, Initial residual = (0.00419262 0.00631155 9.4985e-15), Final residual = (2.35311e-26 3.59143e-26 5.98576e-26), No Iterations 104
maxResidual = 0.00631155

ExecutionTime = 19.07 s  ClockTime = 20 s

Time = 182

         Steady solver/PNP-NS Iteration      # 1
BiCGStab:  Solving for PNP, Initial residual = (0.00341868 0.0053228 7.61167e-15), Final residual = (1.92345e-26 2.93574e-26 4.86617e-26), No Iterations 107
maxResidual = 0.0053228

ExecutionTime = 19.18 s  ClockTime = 20 s

Time = 183

         Steady solver/PNP-NS Iteration      # 1
BiCGStab:  Solving for PNP, Initial residual = (0.00408532 0.00614883 9.89426e-15), Final residual = (3.34322e-27 5.10301e-27 8.48484e-27), No Iterations 108
maxResidual = 0.00614883

ExecutionTime = 19.28 s  ClockTime = 20 s

Time = 184

         Steady solver/PNP-NS Iteration      # 1
BiCGStab:  Solving for PNP, Initial residual = (0.00334575 0.00520942 7.63514e-15), Final residual = (2.1862e-26 3.33676e-26 5.52946e-26), No Iterations 107
maxResidual = 0.00520942

ExecutionTime = 19.38 s  ClockTime = 20 s

Time = 185

         Steady solver/PNP-NS Iteration      # 1
BiCGStab:  Solving for PNP, Initial residual = (0.00398134 0.00599117 9.40319e-15), Final residual = (2.11246e-26 3.22433e-26 5.34878e-26), No Iterations 104
maxResidual = 0.00599117

ExecutionTime = 19.48 s  ClockTime = 20 s

Time = 186

         Steady solver/PNP-NS Iteration      # 1
BiCGStab:  Solving for PNP, Initial residual = (0.0032745 0.00509865 7.58065e-15), Final residual = (2.34874e-26 3.58484e-26 5.94387e-26), No Iterations 105
maxResidual = 0.00509865

ExecutionTime = 19.58 s  ClockTime = 20 s

Time = 187

         Steady solver/PNP-NS Iteration      # 1
BiCGStab:  Solving for PNP, Initial residual = (0.00388055 0.00583837 9.11809e-15), Final residual = (5.92635e-27 9.04572e-27 1.50308e-26), No Iterations 104
maxResidual = 0.00583837

ExecutionTime = 19.68 s  ClockTime = 20 s

Time = 188

         Steady solver/PNP-NS Iteration      # 1
BiCGStab:  Solving for PNP, Initial residual = (0.00320489 0.00499042 7.46999e-15), Final residual = (2.71618e-26 4.1458e-26 6.8732e-26), No Iterations 106
maxResidual = 0.00499042

ExecutionTime = 19.79 s  ClockTime = 20 s

Time = 189

         Steady solver/PNP-NS Iteration      # 1
BiCGStab:  Solving for PNP, Initial residual = (0.00378284 0.00569027 9.43038e-15), Final residual = (1.82966e-26 2.7927e-26 4.63222e-26), No Iterations 104
maxResidual = 0.00569027

ExecutionTime = 19.89 s  ClockTime = 21 s

Time = 190

         Steady solver/PNP-NS Iteration      # 1
BiCGStab:  Solving for PNP, Initial residual = (0.00313688 0.00488468 7.9495e-15), Final residual = (2.13989e-26 3.26373e-26 5.43534e-26), No Iterations 110
maxResidual = 0.00488468

ExecutionTime = 20 s  ClockTime = 21 s

Time = 191

         Steady solver/PNP-NS Iteration      # 1
BiCGStab:  Solving for PNP, Initial residual = (0.00368809 0.0055467 9.54349e-15), Final residual = (1.37402e-26 2.0972e-26 3.47369e-26), No Iterations 105
maxResidual = 0.0055467

ExecutionTime = 20.11 s  ClockTime = 21 s

Time = 192

         Steady solver/PNP-NS Iteration      # 1
BiCGStab:  Solving for PNP, Initial residual = (0.00307044 0.00478138 7.65475e-15), Final residual = (2.57659e-26 3.93268e-26 6.5257e-26), No Iterations 106
maxResidual = 0.00478138

ExecutionTime = 20.21 s  ClockTime = 21 s

Time = 193

         Steady solver/PNP-NS Iteration      # 1
BiCGStab:  Solving for PNP, Initial residual = (0.00359622 0.0054075 9.05122e-15), Final residual = (2.36348e-26 3.60742e-26 5.99113e-26), No Iterations 105
maxResidual = 0.0054075

ExecutionTime = 20.31 s  ClockTime = 21 s

Time = 194

         Steady solver/PNP-NS Iteration      # 1
BiCGStab:  Solving for PNP, Initial residual = (0.00300554 0.00468047 7.51951e-15), Final residual = (1.57832e-26 2.42308e-26 4.34989e-26), No Iterations 107
maxResidual = 0.00468047

ExecutionTime = 20.41 s  ClockTime = 21 s

Time = 195

         Steady solver/PNP-NS Iteration      # 1
BiCGStab:  Solving for PNP, Initial residual = (0.00350711 0.00527252 9.39107e-15), Final residual = (1.74085e-26 2.6579e-26 4.40911e-26), No Iterations 104
maxResidual = 0.00527252

ExecutionTime = 20.5 s  ClockTime = 21 s

Time = 196

         Steady solver/PNP-NS Iteration      # 1
BiCGStab:  Solving for PNP, Initial residual = (0.00294215 0.00458189 7.72028e-15), Final residual = (1.03533e-26 1.58113e-26 2.62916e-26), No Iterations 106
maxResidual = 0.00458189

ExecutionTime = 20.61 s  ClockTime = 21 s

Time = 197

         Steady solver/PNP-NS Iteration      # 1
BiCGStab:  Solving for PNP, Initial residual = (0.00342067 0.00514161 9.07817e-15), Final residual = (2.2383e-26 3.41668e-26 5.67197e-26), No Iterations 103
maxResidual = 0.00514161

ExecutionTime = 20.71 s  ClockTime = 21 s

Time = 198

         Steady solver/PNP-NS Iteration      # 1
BiCGStab:  Solving for PNP, Initial residual = (0.00288022 0.00448559 7.74799e-15), Final residual = (2.71994e-26 4.15118e-26 6.89852e-26), No Iterations 105
maxResidual = 0.00448559

ExecutionTime = 20.81 s  ClockTime = 22 s

Time = 199

         Steady solver/PNP-NS Iteration      # 1
BiCGStab:  Solving for PNP, Initial residual = (0.00333681 0.00501463 9.16734e-15), Final residual = (2.77418e-26 4.23426e-26 7.01784e-26), No Iterations 105
maxResidual = 0.00501463

ExecutionTime = 20.91 s  ClockTime = 22 s

Time = 200

         Steady solver/PNP-NS Iteration      # 1
BiCGStab:  Solving for PNP, Initial residual = (0.00281973 0.00439151 7.77036e-15), Final residual = (2.42755e-26 3.70512e-26 6.13925e-26), No Iterations 109
maxResidual = 0.00439151

ExecutionTime = 21.03 s  ClockTime = 22 s

Time = 201

         Steady solver/PNP-NS Iteration      # 1
BiCGStab:  Solving for PNP, Initial residual = (0.00325544 0.00489144 9.14685e-15), Final residual = (2.64517e-26 4.03736e-26 6.70104e-26), No Iterations 102
maxResidual = 0.00489144

ExecutionTime = 21.13 s  ClockTime = 22 s

Time = 202

         Steady solver/PNP-NS Iteration      # 1
BiCGStab:  Solving for PNP, Initial residual = (0.00276064 0.00429962 7.75591e-15), Final residual = (2.61817e-26 3.99597e-26 6.64676e-26), No Iterations 107
maxResidual = 0.00429962

ExecutionTime = 21.23 s  ClockTime = 22 s

Time = 203

         Steady solver/PNP-NS Iteration      # 1
BiCGStab:  Solving for PNP, Initial residual = (0.00317647 0.00477192 8.9811e-15), Final residual = (2.68528e-26 4.09849e-26 6.79955e-26), No Iterations 103
maxResidual = 0.00477192

ExecutionTime = 21.33 s  ClockTime = 22 s

Time = 204

         Steady solver/PNP-NS Iteration      # 1
BiCGStab:  Solving for PNP, Initial residual = (0.00270292 0.00420986 7.59399e-15), Final residual = (3.1789e-26 4.85187e-26 8.04372e-26), No Iterations 114
maxResidual = 0.00420986

ExecutionTime = 21.44 s  ClockTime = 22 s

Time = 205

         Steady solver/PNP-NS Iteration      # 1
BiCGStab:  Solving for PNP, Initial residual = (0.00309983 0.00465593 9.61256e-15), Final residual = (1.15325e-26 1.76019e-26 2.92709e-26), No Iterations 104
maxResidual = 0.00465593

ExecutionTime = 21.54 s  ClockTime = 22 s

Time = 206

         Steady solver/PNP-NS Iteration      # 1
BiCGStab:  Solving for PNP, Initial residual = (0.00264655 0.00412218 7.56885e-15), Final residual = (2.75002e-26 4.19749e-26 6.96473e-26), No Iterations 107
maxResidual = 0.00412218

ExecutionTime = 21.64 s  ClockTime = 22 s

Time = 207

         Steady solver/PNP-NS Iteration      # 1
BiCGStab:  Solving for PNP, Initial residual = (0.00302543 0.00454337 9.25544e-15), Final residual = (1.10379e-26 1.68739e-26 2.84517e-26), No Iterations 103
maxResidual = 0.00454337

ExecutionTime = 21.74 s  ClockTime = 22 s

Time = 208

         Steady solver/PNP-NS Iteration      # 1
BiCGStab:  Solving for PNP, Initial residual = (0.00259148 0.00403654 7.78686e-15), Final residual = (1.5874e-26 2.42267e-26 4.03396e-26), No Iterations 108
maxResidual = 0.00403654

ExecutionTime = 21.84 s  ClockTime = 23 s

Time = 209

         Steady solver/PNP-NS Iteration      # 1
BiCGStab:  Solving for PNP, Initial residual = (0.0029532 0.00443411 8.7161e-15), Final residual = (2.66957e-26 4.07537e-26 6.88115e-26), No Iterations 104
maxResidual = 0.00443411

ExecutionTime = 21.95 s  ClockTime = 23 s

Time = 210

         Steady solver/PNP-NS Iteration      # 1
BiCGStab:  Solving for PNP, Initial residual = (0.00253771 0.00395289 7.60311e-15), Final residual = (1.32874e-26 2.02821e-26 3.36163e-26), No Iterations 105
maxResidual = 0.00395289

ExecutionTime = 22.06 s  ClockTime = 23 s

Time = 211

         Steady solver/PNP-NS Iteration      # 1
BiCGStab:  Solving for PNP, Initial residual = (0.00288307 0.00432805 8.50949e-15), Final residual = (2.95843e-26 4.51552e-26 7.4826e-26), No Iterations 102
maxResidual = 0.00432805

ExecutionTime = 22.15 s  ClockTime = 23 s

Time = 212

         Steady solver/PNP-NS Iteration      # 1
BiCGStab:  Solving for PNP, Initial residual = (0.00248518 0.00387119 7.42985e-15), Final residual = (2.04072e-26 3.11468e-26 5.16534e-26), No Iterations 106
maxResidual = 0.00387119

ExecutionTime = 22.26 s  ClockTime = 23 s

Time = 213

         Steady solver/PNP-NS Iteration      # 1
BiCGStab:  Solving for PNP, Initial residual = (0.00281497 0.00422508 8.82816e-15), Final residual = (3.14592e-26 4.80182e-26 7.99352e-26), No Iterations 100
maxResidual = 0.00422508

ExecutionTime = 22.35 s  ClockTime = 23 s

Time = 214

         Steady solver/PNP-NS Iteration      # 1
BiCGStab:  Solving for PNP, Initial residual = (0.00243388 0.00379139 7.67642e-15), Final residual = (2.27317e-26 3.46931e-26 5.79317e-26), No Iterations 108
maxResidual = 0.00379139

ExecutionTime = 22.45 s  ClockTime = 23 s

Time = 215

         Steady solver/PNP-NS Iteration      # 1
BiCGStab:  Solving for PNP, Initial residual = (0.00274883 0.0041251 8.78691e-15), Final residual = (2.96428e-26 4.5244e-26 7.5028e-26), No Iterations 104
maxResidual = 0.0041251

ExecutionTime = 22.55 s  ClockTime = 23 s

Time = 216

         Steady solver/PNP-NS Iteration      # 1
BiCGStab:  Solving for PNP, Initial residual = (0.00238378 0.00371346 7.41856e-15), Final residual = (1.74154e-26 2.65782e-26 4.43989e-26), No Iterations 107
maxResidual = 0.00371346

ExecutionTime = 22.65 s  ClockTime = 23 s

Time = 217

         Steady solver/PNP-NS Iteration      # 1
BiCGStab:  Solving for PNP, Initial residual = (0.00268459 0.00402801 8.32759e-15), Final residual = (1.59124e-26 2.42877e-26 4.02617e-26), No Iterations 102
maxResidual = 0.00402801

ExecutionTime = 22.76 s  ClockTime = 24 s

Time = 218

         Steady solver/PNP-NS Iteration      # 1
BiCGStab:  Solving for PNP, Initial residual = (0.00233485 0.00363734 7.62277e-15), Final residual = (2.9566e-26 4.51262e-26 7.47527e-26), No Iterations 106
maxResidual = 0.00363734

ExecutionTime = 22.86 s  ClockTime = 24 s

Time = 219

         Steady solver/PNP-NS Iteration      # 1
BiCGStab:  Solving for PNP, Initial residual = (0.00262218 0.00393371 8.49548e-15), Final residual = (1.83463e-26 2.80019e-26 4.65705e-26), No Iterations 106
maxResidual = 0.00393371

ExecutionTime = 22.96 s  ClockTime = 24 s

Time = 220

         Steady solver/PNP-NS Iteration      # 1
BiCGStab:  Solving for PNP, Initial residual = (0.00228706 0.003563 7.60871e-15), Final residual = (2.04832e-26 3.12565e-26 5.19968e-26), No Iterations 106
maxResidual = 0.003563

ExecutionTime = 23.07 s  ClockTime = 24 s

Time = 221

         Steady solver/PNP-NS Iteration      # 1
BiCGStab:  Solving for PNP, Initial residual = (0.00256156 0.00384213 9.15545e-15), Final residual = (2.55465e-26 3.89898e-26 6.50839e-26), No Iterations 104
maxResidual = 0.00384213

ExecutionTime = 23.17 s  ClockTime = 24 s

Time = 222

         Steady solver/PNP-NS Iteration      # 1
BiCGStab:  Solving for PNP, Initial residual = (0.0022404 0.0034904 7.38368e-15), Final residual = (3.09602e-26 4.72428e-26 7.86997e-26), No Iterations 108
maxResidual = 0.0034904

ExecutionTime = 23.28 s  ClockTime = 24 s

Time = 223

         Steady solver/PNP-NS Iteration      # 1
BiCGStab:  Solving for PNP, Initial residual = (0.00250265 0.00375315 8.48563e-15), Final residual = (1.8461e-26 2.81773e-26 4.66999e-26), No Iterations 104
maxResidual = 0.00375315

ExecutionTime = 23.38 s  ClockTime = 24 s

Time = 224

         Steady solver/PNP-NS Iteration      # 1
BiCGStab:  Solving for PNP, Initial residual = (0.00219482 0.00341949 7.38772e-15), Final residual = (1.96649e-26 3.00144e-26 4.9772e-26), No Iterations 112
maxResidual = 0.00341949

ExecutionTime = 23.49 s  ClockTime = 24 s

Time = 225

         Steady solver/PNP-NS Iteration      # 1
BiCGStab:  Solving for PNP, Initial residual = (0.00244541 0.00366672 8.71848e-15), Final residual = (1.62225e-26 2.47602e-26 4.11356e-26), No Iterations 104
maxResidual = 0.00366672

ExecutionTime = 23.58 s  ClockTime = 24 s

Time = 226

         Steady solver/PNP-NS Iteration      # 1
BiCGStab:  Solving for PNP, Initial residual = (0.00215031 0.00335024 7.35575e-15), Final residual = (2.54831e-26 3.88928e-26 6.46149e-26), No Iterations 113
maxResidual = 0.00335024

ExecutionTime = 23.69 s  ClockTime = 25 s

Time = 227

         Steady solver/PNP-NS Iteration      # 1
BiCGStab:  Solving for PNP, Initial residual = (0.00238978 0.00358273 9.32016e-15), Final residual = (2.7311e-26 4.1685e-26 6.90991e-26), No Iterations 104
maxResidual = 0.00358273

ExecutionTime = 23.79 s  ClockTime = 25 s

Time = 228

         Steady solver/PNP-NS Iteration      # 1
BiCGStab:  Solving for PNP, Initial residual = (0.00210685 0.00328261 7.71817e-15), Final residual = (1.53602e-26 2.35198e-26 4.14941e-26), No Iterations 110
maxResidual = 0.00328261

ExecutionTime = 23.9 s  ClockTime = 25 s

Time = 229

         Steady solver/PNP-NS Iteration      # 1
BiCGStab:  Solving for PNP, Initial residual = (0.00233572 0.00350112 8.94953e-15), Final residual = (2.26276e-26 3.45366e-26 5.72853e-26), No Iterations 104
maxResidual = 0.00350112

ExecutionTime = 24 s  ClockTime = 25 s

Time = 230

         Steady solver/PNP-NS Iteration      # 1
BiCGStab:  Solving for PNP, Initial residual = (0.0020644 0.00321656 7.66751e-15), Final residual = (1.62057e-26 2.47473e-26 4.12118e-26), No Iterations 108
maxResidual = 0.00321656

ExecutionTime = 24.11 s  ClockTime = 25 s

Time = 231

         Steady solver/PNP-NS Iteration      # 1
BiCGStab:  Solving for PNP, Initial residual = (0.00228316 0.00342182 8.52883e-15), Final residual = (2.36188e-26 3.60481e-26 6.01596e-26), No Iterations 104
maxResidual = 0.00342182

ExecutionTime = 24.21 s  ClockTime = 25 s

Time = 232

         Steady solver/PNP-NS Iteration      # 1
BiCGStab:  Solving for PNP, Initial residual = (0.00202295 0.00315206 7.73421e-15), Final residual = (2.38414e-26 3.64009e-26 6.07776e-26), No Iterations 105
maxResidual = 0.00315206

ExecutionTime = 24.32 s  ClockTime = 25 s

Time = 233

         Steady solver/PNP-NS Iteration      # 1
BiCGStab:  Solving for PNP, Initial residual = (0.00223207 0.00334489 8.16451e-15), Final residual = (2.10158e-26 3.20764e-26 5.32795e-26), No Iterations 105
maxResidual = 0.00334489

ExecutionTime = 24.42 s  ClockTime = 25 s

Time = 234

         Steady solver/PNP-NS Iteration      # 1
BiCGStab:  Solving for PNP, Initial residual = (0.00198247 0.00308907 7.48663e-15), Final residual = (2.81184e-26 4.30397e-26 7.90998e-26), No Iterations 107
maxResidual = 0.00308907

ExecutionTime = 24.52 s  ClockTime = 25 s

Time = 235

         Steady solver/PNP-NS Iteration      # 1
BiCGStab:  Solving for PNP, Initial residual = (0.0021824 0.00327061 8.27002e-15), Final residual = (2.35572e-26 3.59555e-26 5.95908e-26), No Iterations 103
maxResidual = 0.00327061

ExecutionTime = 24.62 s  ClockTime = 25 s

Time = 236

         Steady solver/PNP-NS Iteration      # 1
BiCGStab:  Solving for PNP, Initial residual = (0.00194294 0.00302755 7.70762e-15), Final residual = (1.60259e-26 2.44585e-26 4.07113e-26), No Iterations 108
maxResidual = 0.00302755

ExecutionTime = 24.73 s  ClockTime = 26 s

Time = 237

         Steady solver/PNP-NS Iteration      # 1
BiCGStab:  Solving for PNP, Initial residual = (0.0021341 0.0031984 8.36402e-15), Final residual = (1.14485e-26 1.74738e-26 2.90621e-26), No Iterations 105
maxResidual = 0.0031984

ExecutionTime = 24.82 s  ClockTime = 26 s

Time = 238

         Steady solver/PNP-NS Iteration      # 1
BiCGStab:  Solving for PNP, Initial residual = (0.00190434 0.00296747 7.41984e-15), Final residual = (1.90209e-26 2.90301e-26 4.84027e-26), No Iterations 109
maxResidual = 0.00296747

ExecutionTime = 24.92 s  ClockTime = 26 s

Time = 239

         Steady solver/PNP-NS Iteration      # 1
BiCGStab:  Solving for PNP, Initial residual = (0.00208713 0.0031282 8.46948e-15), Final residual = (2.18285e-26 3.33156e-26 5.55826e-26), No Iterations 105
maxResidual = 0.0031282

ExecutionTime = 25.03 s  ClockTime = 26 s

Time = 240

         Steady solver/PNP-NS Iteration      # 1
BiCGStab:  Solving for PNP, Initial residual = (0.00186664 0.0029088 7.67717e-15), Final residual = (1.90383e-26 2.90578e-26 4.81914e-26), No Iterations 107
maxResidual = 0.0029088

ExecutionTime = 25.14 s  ClockTime = 26 s

Time = 241

         Steady solver/PNP-NS Iteration      # 1
BiCGStab:  Solving for PNP, Initial residual = (0.00204145 0.00305992 8.30419e-15), Final residual = (1.79653e-26 2.74234e-26 4.59121e-26), No Iterations 105
maxResidual = 0.00305992

ExecutionTime = 25.24 s  ClockTime = 26 s

Time = 242

         Steady solver/PNP-NS Iteration      # 1
BiCGStab:  Solving for PNP, Initial residual = (0.00182983 0.0028515 7.35858e-15), Final residual = (2.00074e-26 3.05373e-26 5.05921e-26), No Iterations 108
maxResidual = 0.0028515

ExecutionTime = 25.34 s  ClockTime = 26 s

Time = 243

         Steady solver/PNP-NS Iteration      # 1
BiCGStab:  Solving for PNP, Initial residual = (0.00199703 0.00299351 8.22811e-15), Final residual = (2.93035e-26 4.47252e-26 7.44488e-26), No Iterations 103
maxResidual = 0.00299351

ExecutionTime = 25.44 s  ClockTime = 26 s

Time = 244

         Steady solver/PNP-NS Iteration      # 1
BiCGStab:  Solving for PNP, Initial residual = (0.00179387 0.00279554 7.34133e-15), Final residual = (8.85488e-27 1.34641e-26 2.36192e-26), No Iterations 107
maxResidual = 0.00279554

ExecutionTime = 25.55 s  ClockTime = 26 s

Time = 245

         Steady solver/PNP-NS Iteration      # 1
BiCGStab:  Solving for PNP, Initial residual = (0.00195381 0.00292892 8.28127e-15), Final residual = (1.35025e-26 2.06218e-26 3.42855e-26), No Iterations 107
maxResidual = 0.00292892

ExecutionTime = 25.65 s  ClockTime = 27 s

Time = 246

         Steady solver/PNP-NS Iteration      # 1
BiCGStab:  Solving for PNP, Initial residual = (0.00175877 0.0027409 7.27115e-15), Final residual = (1.54757e-26 2.35839e-26 3.92605e-26), No Iterations 110
maxResidual = 0.0027409

ExecutionTime = 25.76 s  ClockTime = 27 s

Time = 247

         Steady solver/PNP-NS Iteration      # 1
BiCGStab:  Solving for PNP, Initial residual = (0.00191177 0.00286609 8.58535e-15), Final residual = (1.94804e-26 2.97308e-26 4.98148e-26), No Iterations 105
maxResidual = 0.00286609

ExecutionTime = 25.86 s  ClockTime = 27 s

Time = 248

         Steady solver/PNP-NS Iteration      # 1
BiCGStab:  Solving for PNP, Initial residual = (0.00172448 0.00268753 7.36534e-15), Final residual = (2.63819e-26 4.02741e-26 6.67456e-26), No Iterations 106
maxResidual = 0.00268753

ExecutionTime = 25.96 s  ClockTime = 27 s

Time = 249

         Steady solver/PNP-NS Iteration      # 1
BiCGStab:  Solving for PNP, Initial residual = (0.00187087 0.00280496 8.24434e-15), Final residual = (2.99154e-26 4.56603e-26 7.56884e-26), No Iterations 103
maxResidual = 0.00280496

ExecutionTime = 26.06 s  ClockTime = 27 s

Time = 250

         Steady solver/PNP-NS Iteration      # 1
BiCGStab:  Solving for PNP, Initial residual = (0.001691 0.00263541 7.34542e-15), Final residual = (1.83447e-26 2.79793e-26 4.6787e-26), No Iterations 106
maxResidual = 0.00263541

ExecutionTime = 26.17 s  ClockTime = 27 s

Time = 251

         Steady solver/PNP-NS Iteration      # 1
BiCGStab:  Solving for PNP, Initial residual = (0.00183108 0.00274549 8.45437e-15), Final residual = (1.20653e-26 1.84149e-26 3.0637e-26), No Iterations 105
maxResidual = 0.00274549

ExecutionTime = 26.27 s  ClockTime = 27 s

Time = 252

         Steady solver/PNP-NS Iteration      # 1
BiCGStab:  Solving for PNP, Initial residual = (0.0016583 0.00258451 7.48838e-15), Final residual = (2.17461e-26 3.31425e-26 5.5169e-26), No Iterations 106
maxResidual = 0.00258451

ExecutionTime = 26.38 s  ClockTime = 27 s

Time = 253

         Steady solver/PNP-NS Iteration      # 1
BiCGStab:  Solving for PNP, Initial residual = (0.00179235 0.00268762 7.91607e-15), Final residual = (1.49809e-26 2.28654e-26 3.79193e-26), No Iterations 105
maxResidual = 0.00268762

ExecutionTime = 26.48 s  ClockTime = 27 s

Time = 254

         Steady solver/PNP-NS Iteration      # 1
BiCGStab:  Solving for PNP, Initial residual = (0.00162637 0.0025348 7.32978e-15), Final residual = (2.41381e-26 3.68404e-26 6.13352e-26), No Iterations 108
maxResidual = 0.0025348

ExecutionTime = 26.58 s  ClockTime = 28 s

Time = 255

         Steady solver/PNP-NS Iteration      # 1
BiCGStab:  Solving for PNP, Initial residual = (0.00175467 0.00263131 7.85414e-15), Final residual = (1.04067e-26 1.58834e-26 2.64223e-26), No Iterations 108
maxResidual = 0.00263131

ExecutionTime = 26.68 s  ClockTime = 28 s

Time = 256

         Steady solver/PNP-NS Iteration      # 1
BiCGStab:  Solving for PNP, Initial residual = (0.00159519 0.00248625 7.346e-15), Final residual = (2.68133e-26 4.09241e-26 6.79725e-26), No Iterations 110
maxResidual = 0.00248625

ExecutionTime = 26.79 s  ClockTime = 28 s

Time = 257

         Steady solver/PNP-NS Iteration      # 1
BiCGStab:  Solving for PNP, Initial residual = (0.00171799 0.0025765 8.13474e-15), Final residual = (3.1731e-26 4.8431e-26 8.03257e-26), No Iterations 104
maxResidual = 0.0025765

ExecutionTime = 26.89 s  ClockTime = 28 s

Time = 258

         Steady solver/PNP-NS Iteration      # 1
BiCGStab:  Solving for PNP, Initial residual = (0.00156473 0.00243883 7.21466e-15), Final residual = (2.5531e-26 3.89626e-26 6.46861e-26), No Iterations 103
maxResidual = 0.00243883

ExecutionTime = 26.99 s  ClockTime = 28 s

Time = 259

         Steady solver/PNP-NS Iteration      # 1
BiCGStab:  Solving for PNP, Initial residual = (0.00168229 0.00252316 7.96185e-15), Final residual = (2.03831e-26 3.11024e-26 5.16406e-26), No Iterations 103
maxResidual = 0.00252316

ExecutionTime = 27.08 s  ClockTime = 28 s

Time = 260

         Steady solver/PNP-NS Iteration      # 1
BiCGStab:  Solving for PNP, Initial residual = (0.00153499 0.00239253 7.20652e-15), Final residual = (9.19171e-27 1.40507e-26 2.33451e-26), No Iterations 108
maxResidual = 0.00239253

ExecutionTime = 27.2 s  ClockTime = 28 s

Time = 261

         Steady solver/PNP-NS Iteration      # 1
BiCGStab:  Solving for PNP, Initial residual = (0.00164755 0.00247124 8.26631e-15), Final residual = (1.37849e-26 2.10389e-26 3.51107e-26), No Iterations 105
maxResidual = 0.00247124

ExecutionTime = 27.3 s  ClockTime = 28 s

Time = 262

         Steady solver/PNP-NS Iteration      # 1
BiCGStab:  Solving for PNP, Initial residual = (0.00150595 0.0023473 7.316e-15), Final residual = (1.9951e-26 3.04501e-26 5.06962e-26), No Iterations 107
maxResidual = 0.0023473

ExecutionTime = 27.4 s  ClockTime = 28 s

Time = 263

         Steady solver/PNP-NS Iteration      # 1
BiCGStab:  Solving for PNP, Initial residual = (0.00161372 0.0024207 8.54086e-15), Final residual = (1.22771e-26 1.87373e-26 3.13474e-26), No Iterations 105
maxResidual = 0.0024207

ExecutionTime = 27.5 s  ClockTime = 28 s

Time = 264

         Steady solver/PNP-NS Iteration      # 1
BiCGStab:  Solving for PNP, Initial residual = (0.00147758 0.00230313 7.34763e-15), Final residual = (1.67732e-26 2.56042e-26 4.26338e-26), No Iterations 111
maxResidual = 0.00230313

ExecutionTime = 27.61 s  ClockTime = 29 s

Time = 265

         Steady solver/PNP-NS Iteration      # 1
BiCGStab:  Solving for PNP, Initial residual = (0.00158078 0.00237149 8.37455e-15), Final residual = (1.62714e-26 2.48352e-26 4.1179e-26), No Iterations 103
maxResidual = 0.00237149

ExecutionTime = 27.71 s  ClockTime = 29 s

Time = 266

         Steady solver/PNP-NS Iteration      # 1
BiCGStab:  Solving for PNP, Initial residual = (0.00144988 0.00225999 7.28589e-15), Final residual = (3.05874e-26 4.66795e-26 7.85607e-26), No Iterations 112
maxResidual = 0.00225999

ExecutionTime = 27.82 s  ClockTime = 29 s

Time = 267

         Steady solver/PNP-NS Iteration      # 1
BiCGStab:  Solving for PNP, Initial residual = (0.00154872 0.00232359 7.97899e-15), Final residual = (1.59897e-26 2.44051e-26 4.04741e-26), No Iterations 103
maxResidual = 0.00232359

ExecutionTime = 27.91 s  ClockTime = 29 s

Time = 268

         Steady solver/PNP-NS Iteration      # 1
BiCGStab:  Solving for PNP, Initial residual = (0.00142282 0.00221786 7.15053e-15), Final residual = (1.90704e-26 2.90652e-26 5.12055e-26), No Iterations 112
maxResidual = 0.00221786

ExecutionTime = 28.02 s  ClockTime = 29 s

Time = 269

         Steady solver/PNP-NS Iteration      # 1
BiCGStab:  Solving for PNP, Initial residual = (0.00151749 0.00227694 8.18354e-15), Final residual = (3.08275e-26 4.70484e-26 7.84711e-26), No Iterations 105
maxResidual = 0.00227694

ExecutionTime = 28.12 s  ClockTime = 29 s

Time = 270

         Steady solver/PNP-NS Iteration      # 1
BiCGStab:  Solving for PNP, Initial residual = (0.00139639 0.0021767 7.21012e-15), Final residual = (3.08192e-26 4.67821e-26 7.84184e-26), No Iterations 105
maxResidual = 0.0021767

ExecutionTime = 28.23 s  ClockTime = 29 s

Time = 271

         Steady solver/PNP-NS Iteration      # 1
BiCGStab:  Solving for PNP, Initial residual = (0.00148708 0.00223151 7.76456e-15), Final residual = (1.6981e-26 2.5918e-26 4.30233e-26), No Iterations 103
maxResidual = 0.00223151

ExecutionTime = 28.33 s  ClockTime = 29 s

Time = 272

         Steady solver/PNP-NS Iteration      # 1
BiCGStab:  Solving for PNP, Initial residual = (0.00137059 0.00213651 7.06875e-15), Final residual = (2.05728e-26 3.13982e-26 5.2352e-26), No Iterations 109
maxResidual = 0.00213651

ExecutionTime = 28.44 s  ClockTime = 29 s

Time = 273

         Steady solver/PNP-NS Iteration      # 1
[...]
maxResidual = 3.64981e-05

ExecutionTime = 199.71 s  ClockTime = 208 s

Time = 1933

         Steady solver/PNP-NS Iteration      # 1
BiCGStab:  Solving for PNP, Initial residual = (2.59555e-05 3.64647e-05 5.00453e-15), Final residual = (1.10971e-26 1.66501e-26 4.61192e-26), No Iterations 94
maxResidual = 3.64647e-05

ExecutionTime = 199.8 s  ClockTime = 208 s

Time = 1934

         Steady solver/PNP-NS Iteration      # 1
BiCGStab:  Solving for PNP, Initial residual = (2.59322e-05 3.643e-05 4.97178e-15), Final residual = (1.9639e-26 2.99306e-26 7.02221e-26), No Iterations 94
maxResidual = 3.643e-05

ExecutionTime = 199.89 s  ClockTime = 208 s

Time = 1935

         Steady solver/PNP-NS Iteration      # 1
BiCGStab:  Solving for PNP, Initial residual = (2.59082e-05 3.63967e-05 5.08402e-15), Final residual = (1.89986e-26 2.89246e-26 7.30334e-26), No Iterations 95
maxResidual = 3.63967e-05

ExecutionTime = 199.99 s  ClockTime = 209 s

Time = 1936

         Steady solver/PNP-NS Iteration      # 1
BiCGStab:  Solving for PNP, Initial residual = (2.58851e-05 3.63622e-05 4.99905e-15), Final residual = (1.44933e-26 2.20824e-26 5.47046e-26), No Iterations 95
maxResidual = 3.63622e-05

ExecutionTime = 200.09 s  ClockTime = 209 s

Time = 1937

         Steady solver/PNP-NS Iteration      # 1
BiCGStab:  Solving for PNP, Initial residual = (2.58611e-05 3.63289e-05 5.00064e-15), Final residual = (2.50322e-26 3.81508e-26 8.65948e-26), No Iterations 94
maxResidual = 3.63289e-05

ExecutionTime = 200.18 s  ClockTime = 209 s

Time = 1938

         Steady solver/PNP-NS Iteration      # 1
BiCGStab:  Solving for PNP, Initial residual = (2.5838e-05 3.62945e-05 4.93984e-15), Final residual = (9.25361e-27 1.41001e-26 3.50498e-26), No Iterations 95
maxResidual = 3.62945e-05

ExecutionTime = 200.27 s  ClockTime = 209 s

Time = 1939

         Steady solver/PNP-NS Iteration      # 1
BiCGStab:  Solving for PNP, Initial residual = (2.58142e-05 3.62614e-05 5.02931e-15), Final residual = (1.67091e-26 2.541e-26 6.3145e-26), No Iterations 95
maxResidual = 3.62614e-05

ExecutionTime = 200.37 s  ClockTime = 209 s

Time = 1940

         Steady solver/PNP-NS Iteration      # 1
BiCGStab:  Solving for PNP, Initial residual = (2.57911e-05 3.6227e-05 5.04187e-15), Final residual = (8.08204e-27 1.227e-26 3.71476e-26), No Iterations 96
maxResidual = 3.6227e-05

ExecutionTime = 200.47 s  ClockTime = 209 s

Time = 1941

         Steady solver/PNP-NS Iteration      # 1
BiCGStab:  Solving for PNP, Initial residual = (2.57673e-05 3.6194e-05 4.93674e-15), Final residual = (1.48919e-26 2.265e-26 5.30124e-26), No Iterations 96
maxResidual = 3.6194e-05

ExecutionTime = 200.58 s  ClockTime = 209 s

Time = 1942

         Steady solver/PNP-NS Iteration      # 1
BiCGStab:  Solving for PNP, Initial residual = (2.57444e-05 3.61598e-05 5.03434e-15), Final residual = (2.10582e-26 3.20698e-26 7.64545e-26), No Iterations 94
maxResidual = 3.61598e-05

ExecutionTime = 200.67 s  ClockTime = 209 s

Time = 1943

         Steady solver/PNP-NS Iteration      # 1
BiCGStab:  Solving for PNP, Initial residual = (2.57207e-05 3.61268e-05 4.85171e-15), Final residual = (2.42253e-26 3.69005e-26 8.94128e-26), No Iterations 94
maxResidual = 3.61268e-05

ExecutionTime = 200.77 s  ClockTime = 209 s

Time = 1944

         Steady solver/PNP-NS Iteration      # 1
BiCGStab:  Solving for PNP, Initial residual = (2.56977e-05 3.60927e-05 5.04043e-15), Final residual = (6.89932e-27 1.05238e-26 2.64575e-26), No Iterations 97
maxResidual = 3.60927e-05

ExecutionTime = 200.87 s  ClockTime = 210 s

Time = 1945

         Steady solver/PNP-NS Iteration      # 1
BiCGStab:  Solving for PNP, Initial residual = (2.56741e-05 3.60598e-05 4.98689e-15), Final residual = (1.16998e-26 1.75849e-26 4.06714e-26), No Iterations 95
maxResidual = 3.60598e-05

ExecutionTime = 200.96 s  ClockTime = 210 s

Time = 1946

         Steady solver/PNP-NS Iteration      # 1
BiCGStab:  Solving for PNP, Initial residual = (2.56512e-05 3.60259e-05 5e-15), Final residual = (1.81336e-26 2.74369e-26 7.92772e-26), No Iterations 93
maxResidual = 3.60259e-05

ExecutionTime = 201.06 s  ClockTime = 210 s

Time = 1947

         Steady solver/PNP-NS Iteration      # 1
BiCGStab:  Solving for PNP, Initial residual = (2.56277e-05 3.59931e-05 5.01201e-15), Final residual = (7.18432e-27 1.09249e-26 2.7058e-26), No Iterations 97
maxResidual = 3.59931e-05

ExecutionTime = 201.17 s  ClockTime = 210 s

Time = 1948

         Steady solver/PNP-NS Iteration      # 1
BiCGStab:  Solving for PNP, Initial residual = (2.56048e-05 3.59592e-05 4.87187e-15), Final residual = (1.87778e-26 2.84589e-26 6.50196e-26), No Iterations 95
maxResidual = 3.59592e-05

ExecutionTime = 201.25 s  ClockTime = 210 s

Time = 1949

         Steady solver/PNP-NS Iteration      # 1
BiCGStab:  Solving for PNP, Initial residual = (2.55814e-05 3.59265e-05 4.97867e-15), Final residual = (1.82068e-26 2.7734e-26 6.47653e-26), No Iterations 95
maxResidual = 3.59265e-05

ExecutionTime = 201.35 s  ClockTime = 210 s

Time = 1950

         Steady solver/PNP-NS Iteration      # 1
BiCGStab:  Solving for PNP, Initial residual = (2.55586e-05 3.58927e-05 4.94754e-15), Final residual = (1.19605e-26 1.82272e-26 4.47648e-26), No Iterations 97
maxResidual = 3.58927e-05

ExecutionTime = 201.46 s  ClockTime = 210 s

Time = 1951

         Steady solver/PNP-NS Iteration      # 1
BiCGStab:  Solving for PNP, Initial residual = (2.55352e-05 3.58601e-05 4.89711e-15), Final residual = (1.52341e-26 2.32207e-26 5.37784e-26), No Iterations 95
maxResidual = 3.58601e-05

ExecutionTime = 201.56 s  ClockTime = 210 s

Time = 1952

         Steady solver/PNP-NS Iteration      # 1
BiCGStab:  Solving for PNP, Initial residual = (2.55125e-05 3.58264e-05 5.00023e-15), Final residual = (1.50804e-26 2.29838e-26 5.4533e-26), No Iterations 94
maxResidual = 3.58264e-05

ExecutionTime = 201.65 s  ClockTime = 210 s

Time = 1953

         Steady solver/PNP-NS Iteration      # 1
BiCGStab:  Solving for PNP, Initial residual = (2.54892e-05 3.57939e-05 4.93445e-15), Final residual = (1.23977e-26 1.87008e-26 4.4391e-26), No Iterations 96
maxResidual = 3.57939e-05

ExecutionTime = 201.75 s  ClockTime = 210 s

Time = 1954

         Steady solver/PNP-NS Iteration      # 1
BiCGStab:  Solving for PNP, Initial residual = (2.54665e-05 3.57604e-05 4.9514e-15), Final residual = (9.53957e-27 1.45244e-26 3.67037e-26), No Iterations 96
maxResidual = 3.57604e-05

ExecutionTime = 201.84 s  ClockTime = 211 s

Time = 1955

         Steady solver/PNP-NS Iteration      # 1
BiCGStab:  Solving for PNP, Initial residual = (2.54433e-05 3.57279e-05 5.04993e-15), Final residual = (1.85838e-26 2.83123e-26 6.85086e-26), No Iterations 94
maxResidual = 3.57279e-05

ExecutionTime = 201.94 s  ClockTime = 211 s

Time = 1956

         Steady solver/PNP-NS Iteration      # 1
BiCGStab:  Solving for PNP, Initial residual = (2.54207e-05 3.56945e-05 4.97822e-15), Final residual = (2.1682e-26 3.30483e-26 7.61802e-26), No Iterations 94
maxResidual = 3.56945e-05

ExecutionTime = 202.03 s  ClockTime = 211 s

Time = 1957

         Steady solver/PNP-NS Iteration      # 1
BiCGStab:  Solving for PNP, Initial residual = (2.53975e-05 3.56621e-05 4.99872e-15), Final residual = (1.97577e-26 3.01116e-26 7.15389e-26), No Iterations 94
maxResidual = 3.56621e-05

ExecutionTime = 202.13 s  ClockTime = 211 s

Time = 1958

         Steady solver/PNP-NS Iteration      # 1
BiCGStab:  Solving for PNP, Initial residual = (2.5375e-05 3.56288e-05 4.98624e-15), Final residual = (1.82111e-26 2.77445e-26 6.51108e-26), No Iterations 94
maxResidual = 3.56288e-05

ExecutionTime = 202.22 s  ClockTime = 211 s

Time = 1959

         Steady solver/PNP-NS Iteration      # 1
BiCGStab:  Solving for PNP, Initial residual = (2.53518e-05 3.55965e-05 4.95811e-15), Final residual = (1.33632e-26 2.03495e-26 4.83864e-26), No Iterations 95
maxResidual = 3.55965e-05

ExecutionTime = 202.31 s  ClockTime = 211 s

Time = 1960

         Steady solver/PNP-NS Iteration      # 1
BiCGStab:  Solving for PNP, Initial residual = (2.53294e-05 3.55633e-05 5.00399e-15), Final residual = (7.41825e-27 1.12056e-26 3.79133e-26), No Iterations 96
maxResidual = 3.55633e-05

ExecutionTime = 202.42 s  ClockTime = 211 s

Time = 1961

         Steady solver/PNP-NS Iteration      # 1
BiCGStab:  Solving for PNP, Initial residual = (2.53063e-05 3.55311e-05 4.90441e-15), Final residual = (1.60334e-26 2.44443e-26 5.61695e-26), No Iterations 95
maxResidual = 3.55311e-05

ExecutionTime = 202.52 s  ClockTime = 211 s

Time = 1962

         Steady solver/PNP-NS Iteration      # 1
BiCGStab:  Solving for PNP, Initial residual = (2.52839e-05 3.54979e-05 5.01195e-15), Final residual = (1.23072e-26 1.87555e-26 4.58306e-26), No Iterations 96
maxResidual = 3.54979e-05

ExecutionTime = 202.62 s  ClockTime = 211 s

Time = 1963

         Steady solver/PNP-NS Iteration      # 1
BiCGStab:  Solving for PNP, Initial residual = (2.52609e-05 3.54659e-05 5.03211e-15), Final residual = (2.08314e-26 3.17445e-26 7.62895e-26), No Iterations 94
maxResidual = 3.54659e-05

ExecutionTime = 202.71 s  ClockTime = 211 s

Time = 1964

         Steady solver/PNP-NS Iteration      # 1
BiCGStab:  Solving for PNP, Initial residual = (2.52386e-05 3.54328e-05 4.8314e-15), Final residual = (4.1805e-27 6.36095e-27 1.56813e-26), No Iterations 98
maxResidual = 3.54328e-05

ExecutionTime = 202.81 s  ClockTime = 212 s

Time = 1965

         Steady solver/PNP-NS Iteration      # 1
BiCGStab:  Solving for PNP, Initial residual = (2.52157e-05 3.54008e-05 5.03519e-15), Final residual = (2.01482e-26 3.0687e-26 7.30488e-26), No Iterations 94
maxResidual = 3.54008e-05

ExecutionTime = 202.91 s  ClockTime = 212 s

Time = 1966

         Steady solver/PNP-NS Iteration      # 1
BiCGStab:  Solving for PNP, Initial residual = (2.51934e-05 3.53679e-05 4.91014e-15), Final residual = (1.93729e-26 2.95096e-26 6.98476e-26), No Iterations 93
maxResidual = 3.53679e-05

ExecutionTime = 203 s  ClockTime = 212 s

Time = 1967

         Steady solver/PNP-NS Iteration      # 1
BiCGStab:  Solving for PNP, Initial residual = (2.51705e-05 3.5336e-05 4.9434e-15), Final residual = (1.67343e-26 2.54862e-26 6.25222e-26), No Iterations 94
maxResidual = 3.5336e-05

ExecutionTime = 203.09 s  ClockTime = 212 s

Time = 1968

         Steady solver/PNP-NS Iteration      # 1
BiCGStab:  Solving for PNP, Initial residual = (2.51483e-05 3.53031e-05 5.03232e-15), Final residual = (2.28816e-26 3.48859e-26 8.33776e-26), No Iterations 94
maxResidual = 3.53031e-05

ExecutionTime = 203.18 s  ClockTime = 212 s

Time = 1969

         Steady solver/PNP-NS Iteration      # 1
BiCGStab:  Solving for PNP, Initial residual = (2.51255e-05 3.52713e-05 4.94505e-15), Final residual = (2.12916e-26 3.24344e-26 7.06479e-26), No Iterations 95
maxResidual = 3.52713e-05

ExecutionTime = 203.28 s  ClockTime = 212 s

Time = 1970

         Steady solver/PNP-NS Iteration      # 1
BiCGStab:  Solving for PNP, Initial residual = (2.51034e-05 3.52386e-05 4.85063e-15), Final residual = (8.15918e-27 1.24145e-26 3.07179e-26), No Iterations 93
maxResidual = 3.52386e-05

ExecutionTime = 203.39 s  ClockTime = 212 s

Time = 1971

         Steady solver/PNP-NS Iteration      # 1
BiCGStab:  Solving for PNP, Initial residual = (2.50807e-05 3.52068e-05 4.79186e-15), Final residual = (8.59287e-27 1.31022e-26 2.96022e-26), No Iterations 95
maxResidual = 3.52068e-05

ExecutionTime = 203.49 s  ClockTime = 212 s

Time = 1972

         Steady solver/PNP-NS Iteration      # 1
BiCGStab:  Solving for PNP, Initial residual = (2.50585e-05 3.51742e-05 4.93902e-15), Final residual = (6.7575e-27 1.02737e-26 2.59357e-26), No Iterations 96
maxResidual = 3.51742e-05

ExecutionTime = 203.58 s  ClockTime = 212 s

Time = 1973

         Steady solver/PNP-NS Iteration      # 1
BiCGStab:  Solving for PNP, Initial residual = (2.50359e-05 3.51425e-05 4.92375e-15), Final residual = (1.92141e-26 2.92717e-26 7.2316e-26), No Iterations 94
maxResidual = 3.51425e-05

ExecutionTime = 203.67 s  ClockTime = 212 s

Time = 1974

         Steady solver/PNP-NS Iteration      # 1
BiCGStab:  Solving for PNP, Initial residual = (2.50139e-05 3.511e-05 4.9135e-15), Final residual = (2.20141e-26 3.35758e-26 8.20841e-26), No Iterations 97
maxResidual = 3.511e-05

ExecutionTime = 203.77 s  ClockTime = 213 s

Time = 1975

         Steady solver/PNP-NS Iteration      # 1
BiCGStab:  Solving for PNP, Initial residual = (2.49913e-05 3.50784e-05 5.09762e-15), Final residual = (1.03313e-26 1.5739e-26 3.7223e-26), No Iterations 96
maxResidual = 3.50784e-05

ExecutionTime = 203.87 s  ClockTime = 213 s

Time = 1976

         Steady solver/PNP-NS Iteration      # 1
BiCGStab:  Solving for PNP, Initial residual = (2.49693e-05 3.5046e-05 5.04731e-15), Final residual = (1.36559e-26 2.07874e-26 5.24903e-26), No Iterations 97
maxResidual = 3.5046e-05

ExecutionTime = 203.96 s  ClockTime = 213 s

Time = 1977

         Steady solver/PNP-NS Iteration      # 1
BiCGStab:  Solving for PNP, Initial residual = (2.49468e-05 3.50145e-05 5.05122e-15), Final residual = (2.50143e-26 3.81333e-26 8.82545e-26), No Iterations 94
maxResidual = 3.50145e-05

ExecutionTime = 204.06 s  ClockTime = 213 s

Time = 1978

         Steady solver/PNP-NS Iteration      # 1
BiCGStab:  Solving for PNP, Initial residual = (2.49248e-05 3.49822e-05 5.18177e-15), Final residual = (1.74371e-26 2.65699e-26 6.21864e-26), No Iterations 94
maxResidual = 3.49822e-05

ExecutionTime = 204.16 s  ClockTime = 213 s

Time = 1979

         Steady solver/PNP-NS Iteration      # 1
BiCGStab:  Solving for PNP, Initial residual = (2.49024e-05 3.49508e-05 5.03918e-15), Final residual = (1.31791e-26 2.00831e-26 4.73982e-26), No Iterations 95
maxResidual = 3.49508e-05

ExecutionTime = 204.25 s  ClockTime = 213 s

Time = 1980

         Steady solver/PNP-NS Iteration      # 1
BiCGStab:  Solving for PNP, Initial residual = (2.48805e-05 3.49185e-05 4.90654e-15), Final residual = (1.32553e-26 2.00524e-26 6.87569e-26), No Iterations 98
maxResidual = 3.49185e-05

ExecutionTime = 204.36 s  ClockTime = 213 s

Time = 1981

         Steady solver/PNP-NS Iteration      # 1
BiCGStab:  Solving for PNP, Initial residual = (2.48581e-05 3.48872e-05 5.09502e-15), Final residual = (1.32941e-26 2.02398e-26 5.28182e-26), No Iterations 94
maxResidual = 3.48872e-05

ExecutionTime = 204.45 s  ClockTime = 213 s

Time = 1982

         Steady solver/PNP-NS Iteration      # 1
BiCGStab:  Solving for PNP, Initial residual = (2.48363e-05 3.48551e-05 4.93069e-15), Final residual = (2.01809e-26 3.07748e-26 6.61961e-26), No Iterations 94
maxResidual = 3.48551e-05

ExecutionTime = 204.55 s  ClockTime = 213 s

Time = 1983

         Steady solver/PNP-NS Iteration      # 1
BiCGStab:  Solving for PNP, Initial residual = (2.4814e-05 3.48238e-05 4.97845e-15), Final residual = (1.50332e-26 2.29128e-26 5.51432e-26), No Iterations 95
maxResidual = 3.48238e-05

ExecutionTime = 204.65 s  ClockTime = 213 s

Time = 1984

         Steady solver/PNP-NS Iteration      # 1
BiCGStab:  Solving for PNP, Initial residual = (2.47922e-05 3.47918e-05 4.99777e-15), Final residual = (1.51634e-26 2.30341e-26 5.64677e-26), No Iterations 95
maxResidual = 3.47918e-05

ExecutionTime = 204.74 s  ClockTime = 214 s

Time = 1985

         Steady solver/PNP-NS Iteration      # 1
BiCGStab:  Solving for PNP, Initial residual = (2.477e-05 3.47606e-05 4.91398e-15), Final residual = (1.75063e-26 2.66764e-26 6.44841e-26), No Iterations 95
maxResidual = 3.47606e-05

ExecutionTime = 204.83 s  ClockTime = 214 s

Time = 1986

         Steady solver/PNP-NS Iteration      # 1
BiCGStab:  Solving for PNP, Initial residual = (2.47483e-05 3.47287e-05 4.90688e-15), Final residual = (1.82132e-26 2.7735e-26 6.44271e-26), No Iterations 94
maxResidual = 3.47287e-05

ExecutionTime = 204.93 s  ClockTime = 214 s

Time = 1987

         Steady solver/PNP-NS Iteration      # 1
BiCGStab:  Solving for PNP, Initial residual = (2.47261e-05 3.46976e-05 4.96674e-15), Final residual = (1.74915e-26 2.66435e-26 6.50306e-26), No Iterations 94
maxResidual = 3.46976e-05

ExecutionTime = 205.02 s  ClockTime = 214 s

Time = 1988

         Steady solver/PNP-NS Iteration      # 1
BiCGStab:  Solving for PNP, Initial residual = (2.47044e-05 3.46658e-05 4.93304e-15), Final residual = (2.27309e-26 3.46169e-26 8.57931e-26), No Iterations 95
maxResidual = 3.46658e-05

ExecutionTime = 205.11 s  ClockTime = 214 s

Time = 1989

         Steady solver/PNP-NS Iteration      # 1
BiCGStab:  Solving for PNP, Initial residual = (2.46823e-05 3.46348e-05 5.02658e-15), Final residual = (2.08781e-26 3.18288e-26 7.37793e-26), No Iterations 95
maxResidual = 3.46348e-05

ExecutionTime = 205.21 s  ClockTime = 214 s

Time = 1990

         Steady solver/PNP-NS Iteration      # 1
BiCGStab:  Solving for PNP, Initial residual = (2.46607e-05 3.4603e-05 4.94103e-15), Final residual = (1.686e-26 2.56741e-26 6.60831e-26), No Iterations 94
maxResidual = 3.4603e-05

ExecutionTime = 205.32 s  ClockTime = 214 s

Time = 1991

         Steady solver/PNP-NS Iteration      # 1
BiCGStab:  Solving for PNP, Initial residual = (2.46386e-05 3.45721e-05 5.07154e-15), Final residual = (1.96315e-26 2.9916e-26 7.23773e-26), No Iterations 93
maxResidual = 3.45721e-05

ExecutionTime = 205.42 s  ClockTime = 214 s

Time = 1992

         Steady solver/PNP-NS Iteration      # 1
BiCGStab:  Solving for PNP, Initial residual = (2.46171e-05 3.45405e-05 5.05562e-15), Final residual = (1.91887e-26 2.92198e-26 7.43183e-26), No Iterations 94
maxResidual = 3.45405e-05

ExecutionTime = 205.51 s  ClockTime = 214 s

Time = 1993

         Steady solver/PNP-NS Iteration      # 1
BiCGStab:  Solving for PNP, Initial residual = (2.45951e-05 3.45096e-05 4.99676e-15), Final residual = (1.71598e-26 2.61613e-26 6.02975e-26), No Iterations 95
maxResidual = 3.45096e-05

ExecutionTime = 205.61 s  ClockTime = 214 s

Time = 1994

         Steady solver/PNP-NS Iteration      # 1
BiCGStab:  Solving for PNP, Initial residual = (2.45736e-05 3.44781e-05 5.08978e-15), Final residual = (1.07807e-26 1.64179e-26 4.27041e-26), No Iterations 96
maxResidual = 3.44781e-05

ExecutionTime = 205.7 s  ClockTime = 215 s

Time = 1995

         Steady solver/PNP-NS Iteration      # 1
BiCGStab:  Solving for PNP, Initial residual = (2.45517e-05 3.44473e-05 4.90374e-15), Final residual = (1.80133e-26 2.74671e-26 6.19117e-26), No Iterations 95
maxResidual = 3.44473e-05

ExecutionTime = 205.79 s  ClockTime = 215 s

Time = 1996

         Steady solver/PNP-NS Iteration      # 1
BiCGStab:  Solving for PNP, Initial residual = (2.45303e-05 3.44159e-05 4.97253e-15), Final residual = (2.17457e-26 3.31356e-26 7.79168e-26), No Iterations 94
maxResidual = 3.44159e-05

ExecutionTime = 205.89 s  ClockTime = 215 s

Time = 1997

         Steady solver/PNP-NS Iteration      # 1
BiCGStab:  Solving for PNP, Initial residual = (2.45084e-05 3.43852e-05 5.07683e-15), Final residual = (1.27498e-26 1.94108e-26 4.93746e-26), No Iterations 95
maxResidual = 3.43852e-05

ExecutionTime = 205.98 s  ClockTime = 215 s

Time = 1998

         Steady solver/PNP-NS Iteration      # 1
BiCGStab:  Solving for PNP, Initial residual = (2.4487e-05 3.43538e-05 5.00997e-15), Final residual = (2.31405e-26 3.52825e-26 8.03497e-26), No Iterations 94
maxResidual = 3.43538e-05

ExecutionTime = 206.09 s  ClockTime = 215 s

Time = 1999

         Steady solver/PNP-NS Iteration      # 1
BiCGStab:  Solving for PNP, Initial residual = (2.44652e-05 3.43232e-05 5.03596e-15), Final residual = (2.07141e-26 3.1426e-26 8.70683e-26), No Iterations 94
maxResidual = 3.43232e-05

ExecutionTime = 206.18 s  ClockTime = 215 s

Time = 2000

         Steady solver/PNP-NS Iteration      # 1
BiCGStab:  Solving for PNP, Initial residual = (2.44439e-05 3.4292e-05 5.03707e-15), Final residual = (1.52065e-26 2.31653e-26 5.16329e-26), No Iterations 93
maxResidual = 3.4292e-05

ExecutionTime = 206.28 s  ClockTime = 215 s

End

