/*---------------------------------------------------------------------------*\
| =========                 |                                                 |
| \\      /  F ield         | foam-extend: Open Source CFD                    |
|  \\    /   O peration     | Version:     4.0                                |
|   \\  /    A nd           | Web:         http://www.foam-extend.org         |
|    \\/     M anipulation  | For copyright notice see file Copyright         |
\*---------------------------------------------------------------------------*/
Build    : 4.0-268bb07d15d8
Exec     : PNPnonDFoam
Date     : Mar 13 2024
Time     : 20:40:51
Host     : sh-Precision-7920-Tower
PID      : 5239
CtrlDict : "/media/sh/drive1/NextFoam/tutorials/Coupled/2D_example_steady_PNPnonD_analysis/2D_example_steady_PNPnonD_alpha03/system/controlDict"
Case     : /media/sh/drive1/NextFoam/tutorials/Coupled/2D_example_steady_PNPnonD_analysis/2D_example_steady_PNPnonD_alpha03
nProcs   : 1
SigFpe   : Enabling floating point exception trapping (FOAM_SIGFPE).

// * * * * * * * * * * * * * * * * * * * * * * * * * * * * * * * * * * * * * //
Create time

--> FOAM Warning : 
    From function dlLibraryTable::open(const fileName& functionLibName)
    in file db/dlLibraryTable/dlLibraryTable.C at line 124
    could not load libslipEOF.so: cannot open shared object file: No such file or directory
Create mesh for time = 0

Reading field psiE

Reading field psiI

Reading field cPlus

Reading field cMinus

Reading transportProperties

****************************************************************

Scale Parameters
****************************************************************
Average-diffusivity's value: 3.36e-09 [0 2 -1 0 0 0 0]
Time-scale's value: 0.0297619 [0 0 1 0 0 0 0]
Potential-scale's value: 0.025852 [1 2 -3 0 0 -1 0]
Velocity-scale's value: 4.73398e-05 [0 1 -1 0 0 0 0]
pressure-scale's value: 4.73398e-06 [0 2 -2 0 0 0 0]
Debye-Length's value: 9.74139e-09 [0 1 0 0 0 0 0]
Dimensionless diffusion coefficient DPlus_nonD: 0.395833
Dimensionless diffusion coefficient DMinus_nonD: 0.604167
Dimensionless Debye-Length: 0.000974139
Schmidt Number: 297.619
Reynold Number: 0.000473398
Pelec Number: 0.140892
****************************************************************
Reading field psiEGrad

Reading field phiE

Reading field DPlusphiE

Reading field DMinusphiE

Reading field phiDcPlus

Reading field phiDcMinus

Reading field netCharge

Creating field PNP


Starting time loop


Starting time loop

Time = 1

         Steady solver/PNP-NS Iteration      # 1
BiCGStab:  Solving for PNP, Initial residual = (0.450596 0.687752 0.569174), Final residual = (3.16904e-26 4.83701e-26 8.00601e-26), No Iterations 109
maxResidual = 0.687752

ExecutionTime = 0.16 s  ClockTime = 0 s

Time = 2

         Steady solver/PNP-NS Iteration      # 1
BiCGStab:  Solving for PNP, Initial residual = (0.0220969 0.0345526 4.49823e-15), Final residual = (2.80391e-26 4.27906e-26 7.08308e-26), No Iterations 107
maxResidual = 0.0345526

ExecutionTime = 0.26 s  ClockTime = 0 s

Time = 3

         Steady solver/PNP-NS Iteration      # 1
BiCGStab:  Solving for PNP, Initial residual = (0.209592 0.320583 2.58553e-14), Final residual = (9.15693e-27 1.39784e-26 2.31367e-26), No Iterations 109
maxResidual = 0.320583

ExecutionTime = 0.37 s  ClockTime = 0 s

Time = 4

         Steady solver/PNP-NS Iteration      # 1
BiCGStab:  Solving for PNP, Initial residual = (0.021523 0.0334818 5.35227e-15), Final residual = (2.59355e-26 3.95822e-26 6.55179e-26), No Iterations 107
maxResidual = 0.0334818

ExecutionTime = 0.48 s  ClockTime = 0 s

Time = 5

         Steady solver/PNP-NS Iteration      # 1
BiCGStab:  Solving for PNP, Initial residual = (0.173089 0.264839 2.30136e-14), Final residual = (3.09123e-26 4.71859e-26 7.80971e-26), No Iterations 110
maxResidual = 0.264839

ExecutionTime = 0.57 s  ClockTime = 0 s

Time = 6

         Steady solver/PNP-NS Iteration      # 1
BiCGStab:  Solving for PNP, Initial residual = (0.0209091 0.0324442 4.93795e-15), Final residual = (2.02673e-26 3.09354e-26 5.11947e-26), No Iterations 108
maxResidual = 0.0324442

ExecutionTime = 0.68 s  ClockTime = 1 s

Time = 7

         Steady solver/PNP-NS Iteration      # 1
BiCGStab:  Solving for PNP, Initial residual = (0.144655 0.221386 2.16575e-14), Final residual = (7.16724e-27 1.09412e-26 1.81078e-26), No Iterations 112
maxResidual = 0.221386

ExecutionTime = 0.79 s  ClockTime = 1 s

Time = 8

         Steady solver/PNP-NS Iteration      # 1
BiCGStab:  Solving for PNP, Initial residual = (0.0202799 0.0314317 5.3305e-15), Final residual = (2.20203e-26 3.35988e-26 5.5617e-26), No Iterations 109
maxResidual = 0.0314317

ExecutionTime = 0.89 s  ClockTime = 1 s

Time = 9

         Steady solver/PNP-NS Iteration      # 1
BiCGStab:  Solving for PNP, Initial residual = (0.122432 0.187415 1.94997e-14), Final residual = (2.58494e-26 3.94639e-26 6.53222e-26), No Iterations 109
maxResidual = 0.187415

ExecutionTime = 1 s  ClockTime = 1 s

Time = 10

         Steady solver/PNP-NS Iteration      # 1
BiCGStab:  Solving for PNP, Initial residual = (0.0196488 0.0304391 4.97977e-15), Final residual = (1.02543e-26 1.56472e-26 2.59015e-26), No Iterations 112
maxResidual = 0.0304391

ExecutionTime = 1.11 s  ClockTime = 1 s

Time = 11

         Steady solver/PNP-NS Iteration      # 1
BiCGStab:  Solving for PNP, Initial residual = (0.103582 0.158584 4.7653e-14), Final residual = (1.0417e-26 1.59041e-26 2.65398e-26), No Iterations 108
maxResidual = 0.158584

ExecutionTime = 1.22 s  ClockTime = 1 s

Time = 12

         Steady solver/PNP-NS Iteration      # 1
BiCGStab:  Solving for PNP, Initial residual = (0.0190217 0.0294639 5.05593e-15), Final residual = (2.58345e-26 3.94304e-26 6.52644e-26), No Iterations 105
maxResidual = 0.0294639

ExecutionTime = 1.32 s  ClockTime = 1 s

Time = 13

         Steady solver/PNP-NS Iteration      # 1
BiCGStab:  Solving for PNP, Initial residual = (0.0886145 0.135673 2.17331e-14), Final residual = (1.97063e-26 3.00892e-26 4.97898e-26), No Iterations 106
maxResidual = 0.135673

ExecutionTime = 1.42 s  ClockTime = 1 s

Time = 14

         Steady solver/PNP-NS Iteration      # 1
BiCGStab:  Solving for PNP, Initial residual = (0.0184021 0.0285054 5.15593e-15), Final residual = (2.1576e-26 3.29277e-26 5.45035e-26), No Iterations 104
maxResidual = 0.0285054

ExecutionTime = 1.52 s  ClockTime = 1 s

Time = 15

         Steady solver/PNP-NS Iteration      # 1
BiCGStab:  Solving for PNP, Initial residual = (0.0768895 0.117717 2.2843e-14), Final residual = (8.62096e-27 1.31592e-26 2.17798e-26), No Iterations 108
maxResidual = 0.117717

ExecutionTime = 1.63 s  ClockTime = 1 s

Time = 16

         Steady solver/PNP-NS Iteration      # 1
BiCGStab:  Solving for PNP, Initial residual = (0.0177919 0.0275635 5.14101e-15), Final residual = (2.61315e-26 3.98807e-26 6.60124e-26), No Iterations 105
maxResidual = 0.0275635

ExecutionTime = 1.73 s  ClockTime = 2 s

Time = 17

         Steady solver/PNP-NS Iteration      # 1
BiCGStab:  Solving for PNP, Initial residual = (0.0674784 0.103296 1.60419e-14), Final residual = (1.22962e-26 1.87687e-26 3.10646e-26), No Iterations 108
maxResidual = 0.103296

ExecutionTime = 1.84 s  ClockTime = 2 s

Time = 18

         Steady solver/PNP-NS Iteration      # 1
BiCGStab:  Solving for PNP, Initial residual = (0.0171921 0.0266385 5.45241e-15), Final residual = (2.84205e-26 4.33747e-26 7.17964e-26), No Iterations 111
maxResidual = 0.0266385

ExecutionTime = 1.94 s  ClockTime = 2 s

Time = 19

         Steady solver/PNP-NS Iteration      # 1
BiCGStab:  Solving for PNP, Initial residual = (0.0597736 0.0914839 1.51994e-14), Final residual = (3.15631e-26 4.81861e-26 7.97436e-26), No Iterations 106
maxResidual = 0.0914839

ExecutionTime = 2.04 s  ClockTime = 2 s

Time = 20

         Steady solver/PNP-NS Iteration      # 1
BiCGStab:  Solving for PNP, Initial residual = (0.0166033 0.025731 5.0218e-15), Final residual = (9.15198e-27 1.39679e-26 2.31197e-26), No Iterations 112
maxResidual = 0.025731

ExecutionTime = 2.16 s  ClockTime = 2 s

Time = 21

         Steady solver/PNP-NS Iteration      # 1
BiCGStab:  Solving for PNP, Initial residual = (0.0533575 0.0816443 1.47092e-14), Final residual = (1.84547e-26 2.81695e-26 4.66234e-26), No Iterations 107
maxResidual = 0.0816443

ExecutionTime = 2.26 s  ClockTime = 2 s

Time = 22

         Steady solver/PNP-NS Iteration      # 1
BiCGStab:  Solving for PNP, Initial residual = (0.0160265 0.0248417 5.71275e-15), Final residual = (1.20516e-26 1.8394e-26 3.04457e-26), No Iterations 106
maxResidual = 0.0248417

ExecutionTime = 2.36 s  ClockTime = 2 s

Time = 23

         Steady solver/PNP-NS Iteration      # 1
BiCGStab:  Solving for PNP, Initial residual = (0.0479353 0.0733269 1.3907e-14), Final residual = (3.11273e-26 4.75149e-26 7.86402e-26), No Iterations 112
maxResidual = 0.0733269

ExecutionTime = 2.47 s  ClockTime = 2 s

Time = 24

         Steady solver/PNP-NS Iteration      # 1
BiCGStab:  Solving for PNP, Initial residual = (0.0154618 0.023971 5.25445e-15), Final residual = (1.17341e-26 1.7909e-26 2.9643e-26), No Iterations 107
maxResidual = 0.023971

ExecutionTime = 2.58 s  ClockTime = 2 s

Time = 25

         Steady solver/PNP-NS Iteration      # 1
BiCGStab:  Solving for PNP, Initial residual = (0.0432989 0.0662138 1.35694e-14), Final residual = (1.26625e-26 1.93286e-26 3.19904e-26), No Iterations 105
maxResidual = 0.0662138

ExecutionTime = 2.68 s  ClockTime = 3 s

Time = 26

         Steady solver/PNP-NS Iteration      # 1
BiCGStab:  Solving for PNP, Initial residual = (0.0149096 0.0231192 6.13005e-15), Final residual = (1.76721e-26 2.69712e-26 4.46372e-26), No Iterations 107
maxResidual = 0.0231192

ExecutionTime = 2.78 s  ClockTime = 3 s

Time = 27

         Steady solver/PNP-NS Iteration      # 1
BiCGStab:  Solving for PNP, Initial residual = (0.0392967 0.0600733 1.29524e-14), Final residual = (2.24775e-26 3.43095e-26 5.6787e-26), No Iterations 106
maxResidual = 0.0600733

ExecutionTime = 2.88 s  ClockTime = 3 s

Time = 28

         Steady solver/PNP-NS Iteration      # 1
BiCGStab:  Solving for PNP, Initial residual = (0.0143704 0.0222871 6.29203e-15), Final residual = (9.91063e-27 1.51226e-26 2.50334e-26), No Iterations 105
maxResidual = 0.0222871

ExecutionTime = 2.98 s  ClockTime = 3 s

Time = 29

         Steady solver/PNP-NS Iteration      # 1
BiCGStab:  Solving for PNP, Initial residual = (0.0358121 0.0547269 1.23153e-14), Final residual = (2.17917e-26 3.32628e-26 5.50536e-26), No Iterations 111
maxResidual = 0.0547269

ExecutionTime = 3.09 s  ClockTime = 3 s

Time = 30

         Steady solver/PNP-NS Iteration      # 1
BiCGStab:  Solving for PNP, Initial residual = (0.0138444 0.021475 5.88426e-15), Final residual = (1.44893e-26 2.21152e-26 3.66069e-26), No Iterations 106
maxResidual = 0.021475

ExecutionTime = 3.2 s  ClockTime = 3 s

Time = 31

         Steady solver/PNP-NS Iteration      # 1
BiCGStab:  Solving for PNP, Initial residual = (0.0327544 0.0500356 1.21047e-14), Final residual = (3.04656e-26 4.65026e-26 7.6968e-26), No Iterations 106
maxResidual = 0.0500356

ExecutionTime = 3.31 s  ClockTime = 3 s

Time = 32

         Steady solver/PNP-NS Iteration      # 1
BiCGStab:  Solving for PNP, Initial residual = (0.013332 0.0206835 5.7902e-15), Final residual = (1.40998e-26 2.15194e-26 3.56199e-26), No Iterations 107
maxResidual = 0.0206835

ExecutionTime = 3.41 s  ClockTime = 3 s

Time = 33

         Steady solver/PNP-NS Iteration      # 1
BiCGStab:  Solving for PNP, Initial residual = (0.0300522 0.0458902 1.13201e-14), Final residual = (1.97526e-26 3.01517e-26 4.99157e-26), No Iterations 107
maxResidual = 0.0458902

ExecutionTime = 3.52 s  ClockTime = 3 s

Time = 34

         Steady solver/PNP-NS Iteration      # 1
BiCGStab:  Solving for PNP, Initial residual = (0.012833 0.0199124 6.28693e-15), Final residual = (1.27143e-26 1.94051e-26 3.21194e-26), No Iterations 108
maxResidual = 0.0199124

ExecutionTime = 3.62 s  ClockTime = 4 s

Time = 35

         Steady solver/PNP-NS Iteration      # 1
BiCGStab:  Solving for PNP, Initial residual = (0.0276507 0.0422064 1.15658e-14), Final residual = (7.53187e-27 1.14979e-26 1.90283e-26), No Iterations 110
maxResidual = 0.0422064

ExecutionTime = 3.73 s  ClockTime = 4 s

Time = 36

         Steady solver/PNP-NS Iteration      # 1
BiCGStab:  Solving for PNP, Initial residual = (0.0123477 0.0191622 6.27985e-15), Final residual = (2.53752e-26 3.87297e-26 6.41054e-26), No Iterations 107
maxResidual = 0.0191622

ExecutionTime = 3.83 s  ClockTime = 4 s

Time = 37

         Steady solver/PNP-NS Iteration      # 1
BiCGStab:  Solving for PNP, Initial residual = (0.0255062 0.0389174 1.10612e-14), Final residual = (1.70794e-26 2.60697e-26 4.3149e-26), No Iterations 107
maxResidual = 0.0389174

ExecutionTime = 3.93 s  ClockTime = 4 s

Time = 38

         Steady solver/PNP-NS Iteration      # 1
BiCGStab:  Solving for PNP, Initial residual = (0.0118762 0.0184329 6.32539e-15), Final residual = (2.40143e-26 3.66522e-26 6.06669e-26), No Iterations 106
maxResidual = 0.0184329

ExecutionTime = 4.04 s  ClockTime = 4 s

Time = 39

         Steady solver/PNP-NS Iteration      # 1
BiCGStab:  Solving for PNP, Initial residual = (0.0235826 0.0359679 1.07558e-14), Final residual = (1.73296e-26 2.64524e-26 4.3782e-26), No Iterations 111
maxResidual = 0.0359679

ExecutionTime = 4.14 s  ClockTime = 4 s

Time = 40

         Steady solver/PNP-NS Iteration      # 1
BiCGStab:  Solving for PNP, Initial residual = (0.0114187 0.0177249 7.75741e-15), Final residual = (2.41997e-26 3.69327e-26 6.11389e-26), No Iterations 106
maxResidual = 0.0177249

ExecutionTime = 4.25 s  ClockTime = 4 s

Time = 41

         Steady solver/PNP-NS Iteration      # 1
BiCGStab:  Solving for PNP, Initial residual = (0.0218499 0.0333114 9.9903e-15), Final residual = (1.8977e-26 2.8968e-26 4.79835e-26), No Iterations 105
maxResidual = 0.0333114

ExecutionTime = 4.35 s  ClockTime = 4 s

Time = 42

         Steady solver/PNP-NS Iteration      # 1
BiCGStab:  Solving for PNP, Initial residual = (0.0109751 0.0170382 6.76882e-15), Final residual = (2.10442e-26 3.21156e-26 5.31666e-26), No Iterations 108
maxResidual = 0.0170382

ExecutionTime = 4.46 s  ClockTime = 4 s

Time = 43

         Steady solver/PNP-NS Iteration      # 1
BiCGStab:  Solving for PNP, Initial residual = (0.0202828 0.0309092 1.04118e-14), Final residual = (1.38785e-26 2.11887e-26 3.5156e-26), No Iterations 105
maxResidual = 0.0309092

ExecutionTime = 4.56 s  ClockTime = 4 s

Time = 44

         Steady solver/PNP-NS Iteration      # 1
BiCGStab:  Solving for PNP, Initial residual = (0.0105452 0.0163725 6.58376e-15), Final residual = (5.39424e-27 8.2843e-27 1.58086e-26), No Iterations 111
maxResidual = 0.0163725

ExecutionTime = 4.66 s  ClockTime = 5 s

Time = 45

         Steady solver/PNP-NS Iteration      # 1
BiCGStab:  Solving for PNP, Initial residual = (0.0188604 0.0287293 1.04461e-14), Final residual = (1.62544e-26 2.48101e-26 4.1088e-26), No Iterations 105
maxResidual = 0.0287293

ExecutionTime = 4.76 s  ClockTime = 5 s

Time = 46

         Steady solver/PNP-NS Iteration      # 1
BiCGStab:  Solving for PNP, Initial residual = (0.0101289 0.0157277 6.63974e-15), Final residual = (1.68414e-26 2.57006e-26 4.25481e-26), No Iterations 105
maxResidual = 0.0157277

ExecutionTime = 4.86 s  ClockTime = 5 s

Time = 47

         Steady solver/PNP-NS Iteration      # 1
BiCGStab:  Solving for PNP, Initial residual = (0.0175656 0.0267453 9.90429e-15), Final residual = (2.13728e-26 3.26256e-26 5.4011e-26), No Iterations 105
maxResidual = 0.0267453

ExecutionTime = 4.96 s  ClockTime = 5 s

Time = 48

         Steady solver/PNP-NS Iteration      # 1
BiCGStab:  Solving for PNP, Initial residual = (0.00972609 0.0151037 6.28942e-15), Final residual = (3.078e-26 4.70144e-26 7.7743e-26), No Iterations 104
maxResidual = 0.0151037

ExecutionTime = 5.06 s  ClockTime = 5 s

Time = 49

         Steady solver/PNP-NS Iteration      # 1
BiCGStab:  Solving for PNP, Initial residual = (0.016384 0.0249351 1.00288e-14), Final residual = (2.80443e-26 4.2806e-26 7.08533e-26), No Iterations 107
maxResidual = 0.0249351

ExecutionTime = 5.17 s  ClockTime = 5 s

Time = 50

         Steady solver/PNP-NS Iteration      # 1
BiCGStab:  Solving for PNP, Initial residual = (0.00933679 0.0145004 6.43768e-15), Final residual = (1.84605e-26 2.81775e-26 4.66378e-26), No Iterations 108
maxResidual = 0.0145004

ExecutionTime = 5.27 s  ClockTime = 5 s

Time = 51

         Steady solver/PNP-NS Iteration      # 1
BiCGStab:  Solving for PNP, Initial residual = (0.0153031 0.0232793 9.44682e-15), Final residual = (2.51805e-26 3.84387e-26 6.40301e-26), No Iterations 105
maxResidual = 0.0232793

ExecutionTime = 5.38 s  ClockTime = 5 s

Time = 52

         Steady solver/PNP-NS Iteration      # 1
BiCGStab:  Solving for PNP, Initial residual = (0.00896081 0.0139175 6.70974e-15), Final residual = (1.992e-26 3.04028e-26 5.03243e-26), No Iterations 108
maxResidual = 0.0139175

ExecutionTime = 5.48 s  ClockTime = 5 s

Time = 53

         Steady solver/PNP-NS Iteration      # 1
BiCGStab:  Solving for PNP, Initial residual = (0.0143118 0.0217612 9.37661e-15), Final residual = (1.90813e-26 2.91249e-26 4.82067e-26), No Iterations 105
maxResidual = 0.0217612

ExecutionTime = 5.58 s  ClockTime = 6 s

Time = 54

         Steady solver/PNP-NS Iteration      # 1
BiCGStab:  Solving for PNP, Initial residual = (0.00859798 0.0133549 6.56043e-15), Final residual = (4.63056e-27 7.06731e-27 1.16993e-26), No Iterations 107
maxResidual = 0.0133549

ExecutionTime = 5.68 s  ClockTime = 6 s

Time = 55

         Steady solver/PNP-NS Iteration      # 1
BiCGStab:  Solving for PNP, Initial residual = (0.0134006 0.0203662 8.85605e-15), Final residual = (1.86644e-26 2.84892e-26 4.71555e-26), No Iterations 104
maxResidual = 0.0203662

ExecutionTime = 5.78 s  ClockTime = 6 s

Time = 56

         Steady solver/PNP-NS Iteration      # 1
BiCGStab:  Solving for PNP, Initial residual = (0.00824803 0.0128122 6.81031e-15), Final residual = (1.8045e-26 2.74891e-26 4.59824e-26), No Iterations 108
maxResidual = 0.0128122

ExecutionTime = 5.89 s  ClockTime = 6 s

Time = 57

         Steady solver/PNP-NS Iteration      # 1
BiCGStab:  Solving for PNP, Initial residual = (0.0125614 0.0190815 9.4416e-15), Final residual = (5.66584e-27 8.64975e-27 1.45736e-26), No Iterations 107
maxResidual = 0.0190815

ExecutionTime = 6 s  ClockTime = 6 s

Time = 58

         Steady solver/PNP-NS Iteration      # 1
BiCGStab:  Solving for PNP, Initial residual = (0.00791068 0.0122889 6.12458e-15), Final residual = (2.30759e-26 3.52142e-26 5.82964e-26), No Iterations 107
maxResidual = 0.0122889

ExecutionTime = 6.1 s  ClockTime = 6 s

Time = 59

         Steady solver/PNP-NS Iteration      # 1
BiCGStab:  Solving for PNP, Initial residual = (0.0117868 0.0178961 9.07457e-15), Final residual = (7.90656e-27 1.20686e-26 1.99758e-26), No Iterations 105
maxResidual = 0.0178961

ExecutionTime = 6.2 s  ClockTime = 6 s

Time = 60

         Steady solver/PNP-NS Iteration      # 1
BiCGStab:  Solving for PNP, Initial residual = (0.0075857 0.0117847 6.17854e-15), Final residual = (2.50697e-26 3.82638e-26 6.33358e-26), No Iterations 106
maxResidual = 0.0117847

ExecutionTime = 6.31 s  ClockTime = 6 s

Time = 61

         Steady solver/PNP-NS Iteration      # 1
BiCGStab:  Solving for PNP, Initial residual = (0.0110709 0.0168006 8.95223e-15), Final residual = (2.4763e-26 3.7797e-26 6.25615e-26), No Iterations 105
maxResidual = 0.0168006

ExecutionTime = 6.41 s  ClockTime = 6 s

Time = 62

         Steady solver/PNP-NS Iteration      # 1
BiCGStab:  Solving for PNP, Initial residual = (0.00727284 0.0112992 6.10962e-15), Final residual = (1.44823e-26 2.21043e-26 3.65882e-26), No Iterations 112
maxResidual = 0.0112992

ExecutionTime = 6.52 s  ClockTime = 6 s

Time = 63

         Steady solver/PNP-NS Iteration      # 1
BiCGStab:  Solving for PNP, Initial residual = (0.0104083 0.0157869 8.65842e-15), Final residual = (2.70556e-26 4.12974e-26 6.8362e-26), No Iterations 105
maxResidual = 0.0157869

ExecutionTime = 6.62 s  ClockTime = 7 s

Time = 64

         Steady solver/PNP-NS Iteration      # 1
BiCGStab:  Solving for PNP, Initial residual = (0.00697187 0.0108321 7.02167e-15), Final residual = (1.89527e-26 2.89275e-26 4.78827e-26), No Iterations 105
maxResidual = 0.0108321

ExecutionTime = 6.72 s  ClockTime = 7 s

Time = 65

         Steady solver/PNP-NS Iteration      # 1
BiCGStab:  Solving for PNP, Initial residual = (0.00979402 0.0148474 9.11694e-15), Final residual = (9.78232e-27 1.49313e-26 2.47152e-26), No Iterations 108
maxResidual = 0.0148474

ExecutionTime = 6.82 s  ClockTime = 7 s

Time = 66

         Steady solver/PNP-NS Iteration      # 1
BiCGStab:  Solving for PNP, Initial residual = (0.00668252 0.010383 6.21419e-15), Final residual = (3.09452e-26 4.72313e-26 7.81802e-26), No Iterations 107
maxResidual = 0.010383

ExecutionTime = 6.93 s  ClockTime = 7 s

Time = 67

         Steady solver/PNP-NS Iteration      # 1
BiCGStab:  Solving for PNP, Initial residual = (0.00922388 0.0139755 8.29346e-15), Final residual = (1.21197e-26 1.84991e-26 3.06194e-26), No Iterations 106
maxResidual = 0.0139755

ExecutionTime = 7.03 s  ClockTime = 7 s

Time = 68

         Steady solver/PNP-NS Iteration      # 1
BiCGStab:  Solving for PNP, Initial residual = (0.00640449 0.00995134 6.99477e-15), Final residual = (3.00641e-26 4.58864e-26 7.59596e-26), No Iterations 104
maxResidual = 0.00995134

ExecutionTime = 7.13 s  ClockTime = 7 s

Time = 69

         Steady solver/PNP-NS Iteration      # 1
BiCGStab:  Solving for PNP, Initial residual = (0.00869395 0.0131652 8.55429e-15), Final residual = (1.12873e-26 1.72265e-26 2.85619e-26), No Iterations 106
maxResidual = 0.0131652

ExecutionTime = 7.23 s  ClockTime = 7 s

Time = 70

         Steady solver/PNP-NS Iteration      # 1
BiCGStab:  Solving for PNP, Initial residual = (0.00613747 0.00953674 7.08367e-15), Final residual = (2.72319e-26 4.15639e-26 6.8801e-26), No Iterations 105
maxResidual = 0.00953674

ExecutionTime = 7.34 s  ClockTime = 7 s

Time = 71

         Steady solver/PNP-NS Iteration      # 1
BiCGStab:  Solving for PNP, Initial residual = (0.00820077 0.0124114 9.1217e-15), Final residual = (1.98237e-26 3.02586e-26 5.00893e-26), No Iterations 105
maxResidual = 0.0124114

ExecutionTime = 7.44 s  ClockTime = 7 s

Time = 72

         Steady solver/PNP-NS Iteration      # 1
BiCGStab:  Solving for PNP, Initial residual = (0.00588112 0.00913867 6.75125e-15), Final residual = (2.68565e-26 4.09903e-26 6.78699e-26), No Iterations 103
maxResidual = 0.00913867

ExecutionTime = 7.54 s  ClockTime = 8 s

Time = 73

         Steady solver/PNP-NS Iteration      # 1
BiCGStab:  Solving for PNP, Initial residual = (0.00774122 0.011709 8.90413e-15), Final residual = (3.07831e-26 4.69858e-26 7.77741e-26), No Iterations 104
maxResidual = 0.011709

ExecutionTime = 7.64 s  ClockTime = 8 s

Time = 74

         Steady solver/PNP-NS Iteration      # 1
BiCGStab:  Solving for PNP, Initial residual = (0.00563512 0.00875663 6.81407e-15), Final residual = (2.04901e-26 3.1274e-26 5.1769e-26), No Iterations 103
maxResidual = 0.00875663

ExecutionTime = 7.74 s  ClockTime = 8 s

Time = 75

         Steady solver/PNP-NS Iteration      # 1
BiCGStab:  Solving for PNP, Initial residual = (0.00731256 0.011054 8.62438e-15), Final residual = (2.81942e-26 4.30352e-26 7.12366e-26), No Iterations 107
maxResidual = 0.011054

ExecutionTime = 7.83 s  ClockTime = 8 s

Time = 76

         Steady solver/PNP-NS Iteration      # 1
BiCGStab:  Solving for PNP, Initial residual = (0.00539916 0.00839016 6.8986e-15), Final residual = (1.4529e-26 2.21753e-26 3.67088e-26), No Iterations 105
maxResidual = 0.00839016

ExecutionTime = 7.94 s  ClockTime = 8 s

Time = 77

         Steady solver/PNP-NS Iteration      # 1
BiCGStab:  Solving for PNP, Initial residual = (0.00691236 0.0104426 8.9528e-15), Final residual = (2.03742e-26 3.11031e-26 5.15459e-26), No Iterations 102
maxResidual = 0.0104426

ExecutionTime = 8.04 s  ClockTime = 8 s

Time = 78

         Steady solver/PNP-NS Iteration      # 1
BiCGStab:  Solving for PNP, Initial residual = (0.00517295 0.00803879 7.41475e-15), Final residual = (1.59035e-26 2.4273e-26 4.01803e-26), No Iterations 106
maxResidual = 0.00803879

ExecutionTime = 8.14 s  ClockTime = 8 s

Time = 79

         Steady solver/PNP-NS Iteration      # 1
BiCGStab:  Solving for PNP, Initial residual = (0.00653842 0.00987148 8.38658e-15), Final residual = (2.54207e-26 3.88008e-26 6.42244e-26), No Iterations 104
maxResidual = 0.00987148

ExecutionTime = 8.24 s  ClockTime = 8 s

Time = 80

         Steady solver/PNP-NS Iteration      # 1
BiCGStab:  Solving for PNP, Initial residual = (0.00495619 0.00770208 9.02913e-15), Final residual = (1.81681e-26 2.77296e-26 4.59026e-26), No Iterations 108
maxResidual = 0.00770208

ExecutionTime = 8.36 s  ClockTime = 8 s

Time = 81

         Steady solver/PNP-NS Iteration      # 1
BiCGStab:  Solving for PNP, Initial residual = (0.00618873 0.00933747 8.57654e-15), Final residual = (3.18962e-26 4.86848e-26 8.05854e-26), No Iterations 103
maxResidual = 0.00933747

ExecutionTime = 8.46 s  ClockTime = 8 s

Time = 82

         Steady solver/PNP-NS Iteration      # 1
BiCGStab:  Solving for PNP, Initial residual = (0.00474859 0.00737956 6.87107e-15), Final residual = (1.44128e-26 2.19962e-26 3.64112e-26), No Iterations 104
maxResidual = 0.00737956

ExecutionTime = 8.56 s  ClockTime = 9 s

Time = 83

         Steady solver/PNP-NS Iteration      # 1
BiCGStab:  Solving for PNP, Initial residual = (0.00586145 0.00883779 8.20436e-15), Final residual = (1.82666e-26 2.78804e-26 4.61521e-26), No Iterations 104
maxResidual = 0.00883779

ExecutionTime = 8.65 s  ClockTime = 9 s

Time = 84

         Steady solver/PNP-NS Iteration      # 1
BiCGStab:  Solving for PNP, Initial residual = (0.00454982 0.00707075 6.75076e-15), Final residual = (1.11261e-26 1.69817e-26 2.81129e-26), No Iterations 106
maxResidual = 0.00707075

ExecutionTime = 8.75 s  ClockTime = 9 s

Time = 85

         Steady solver/PNP-NS Iteration      # 1
BiCGStab:  Solving for PNP, Initial residual = (0.00555489 0.00836986 8.37354e-15), Final residual = (1.42151e-26 2.16957e-26 3.60518e-26), No Iterations 105
maxResidual = 0.00836986

ExecutionTime = 8.86 s  ClockTime = 9 s

Time = 86

         Steady solver/PNP-NS Iteration      # 1
BiCGStab:  Solving for PNP, Initial residual = (0.00435958 0.00677517 6.98953e-15), Final residual = (2.84917e-26 4.34859e-26 7.19909e-26), No Iterations 103
maxResidual = 0.00677517

ExecutionTime = 8.96 s  ClockTime = 9 s

Time = 87

         Steady solver/PNP-NS Iteration      # 1
BiCGStab:  Solving for PNP, Initial residual = (0.00526753 0.00793131 8.716e-15), Final residual = (2.09091e-26 3.19144e-26 5.28292e-26), No Iterations 104
maxResidual = 0.00793131

ExecutionTime = 9.06 s  ClockTime = 9 s

Time = 88

         Steady solver/PNP-NS Iteration      # 1
BiCGStab:  Solving for PNP, Initial residual = (0.00417755 0.00649233 6.79698e-15), Final residual = (1.68908e-26 2.57804e-26 4.26789e-26), No Iterations 105
maxResidual = 0.00649233

ExecutionTime = 9.16 s  ClockTime = 9 s

Time = 89

         Steady solver/PNP-NS Iteration      # 1
BiCGStab:  Solving for PNP, Initial residual = (0.00499795 0.00751998 8.43555e-15), Final residual = (2.87271e-26 4.38472e-26 7.25846e-26), No Iterations 103
maxResidual = 0.00751998

ExecutionTime = 9.26 s  ClockTime = 9 s

Time = 90

         Steady solver/PNP-NS Iteration      # 1
BiCGStab:  Solving for PNP, Initial residual = (0.00400343 0.00622175 6.89512e-15), Final residual = (3.08016e-26 4.70125e-26 7.78341e-26), No Iterations 105
maxResidual = 0.00622175

ExecutionTime = 9.37 s  ClockTime = 9 s

Time = 91

         Steady solver/PNP-NS Iteration      # 1
BiCGStab:  Solving for PNP, Initial residual = (0.00474486 0.00713391 8.31006e-15), Final residual = (2.71535e-26 4.14453e-26 6.86052e-26), No Iterations 104
maxResidual = 0.00713391

ExecutionTime = 9.47 s  ClockTime = 10 s

Time = 92

         Steady solver/PNP-NS Iteration      # 1
BiCGStab:  Solving for PNP, Initial residual = (0.00383691 0.00596298 7.0031e-15), Final residual = (2.69812e-26 4.11786e-26 6.81616e-26), No Iterations 103
maxResidual = 0.00596298

ExecutionTime = 9.57 s  ClockTime = 10 s

Time = 93

         Steady solver/PNP-NS Iteration      # 1
BiCGStab:  Solving for PNP, Initial residual = (0.00450711 0.00677132 8.21647e-15), Final residual = (1.5031e-26 2.29423e-26 3.79797e-26), No Iterations 102
maxResidual = 0.00677132

ExecutionTime = 9.67 s  ClockTime = 10 s

Time = 94

         Steady solver/PNP-NS Iteration      # 1
BiCGStab:  Solving for PNP, Initial residual = (0.00367771 0.00571556 6.72504e-15), Final residual = (1.52987e-26 2.33443e-26 3.86456e-26), No Iterations 105
maxResidual = 0.00571556

ExecutionTime = 9.77 s  ClockTime = 10 s

Time = 95

         Steady solver/PNP-NS Iteration      # 1
BiCGStab:  Solving for PNP, Initial residual = (0.00428365 0.00643259 8.29131e-15), Final residual = (2.84883e-26 4.34829e-26 7.19854e-26), No Iterations 101
maxResidual = 0.00643259

ExecutionTime = 9.86 s  ClockTime = 10 s

Time = 96

         Steady solver/PNP-NS Iteration      # 1
BiCGStab:  Solving for PNP, Initial residual = (0.00352555 0.00547908 6.66411e-15), Final residual = (8.4805e-27 1.29438e-26 2.14281e-26), No Iterations 109
maxResidual = 0.00547908

ExecutionTime = 9.97 s  ClockTime = 10 s

Time = 97

         Steady solver/PNP-NS Iteration      # 1
BiCGStab:  Solving for PNP, Initial residual = (0.00407351 0.00611763 8.45143e-15), Final residual = (2.90868e-26 4.43965e-26 7.35022e-26), No Iterations 103
maxResidual = 0.00611763

ExecutionTime = 10.07 s  ClockTime = 10 s

Time = 98

         Steady solver/PNP-NS Iteration      # 1
BiCGStab:  Solving for PNP, Initial residual = (0.00338018 0.00525314 6.75652e-15), Final residual = (2.67652e-26 4.08517e-26 6.76212e-26), No Iterations 107
maxResidual = 0.00525314

ExecutionTime = 10.17 s  ClockTime = 10 s

Time = 99

         Steady solver/PNP-NS Iteration      # 1
BiCGStab:  Solving for PNP, Initial residual = (0.00387581 0.00582132 8.24137e-15), Final residual = (1.53445e-26 2.34208e-26 3.87676e-26), No Iterations 104
maxResidual = 0.00582132

ExecutionTime = 10.28 s  ClockTime = 10 s

Time = 100

         Steady solver/PNP-NS Iteration      # 1
BiCGStab:  Solving for PNP, Initial residual = (0.00324133 0.00503731 6.6372e-15), Final residual = (2.52029e-26 3.8467e-26 6.36787e-26), No Iterations 108
maxResidual = 0.00503731

ExecutionTime = 10.38 s  ClockTime = 10 s

Time = 101

         Steady solver/PNP-NS Iteration      # 1
BiCGStab:  Solving for PNP, Initial residual = (0.00368972 0.00554243 7.88771e-15), Final residual = (1.86916e-26 2.85295e-26 4.72263e-26), No Iterations 104
maxResidual = 0.00554243

ExecutionTime = 10.48 s  ClockTime = 11 s

Time = 102

         Steady solver/PNP-NS Iteration      # 1
BiCGStab:  Solving for PNP, Initial residual = (0.00310873 0.00483119 7.05457e-15), Final residual = (1.8291e-26 2.79144e-26 4.64218e-26), No Iterations 106
maxResidual = 0.00483119

ExecutionTime = 10.58 s  ClockTime = 11 s

Time = 103

         Steady solver/PNP-NS Iteration      # 1
BiCGStab:  Solving for PNP, Initial residual = (0.00351446 0.00527978 8.01627e-15), Final residual = (1.99116e-26 3.03918e-26 5.03136e-26), No Iterations 102
maxResidual = 0.00527978

ExecutionTime = 10.68 s  ClockTime = 11 s

Time = 104

         Steady solver/PNP-NS Iteration      # 1
BiCGStab:  Solving for PNP, Initial residual = (0.00298213 0.0046344 6.79838e-15), Final residual = (3.09769e-26 4.72802e-26 7.8266e-26), No Iterations 104
maxResidual = 0.0046344

ExecutionTime = 10.78 s  ClockTime = 11 s

Time = 105

         Steady solver/PNP-NS Iteration      # 1
BiCGStab:  Solving for PNP, Initial residual = (0.00334934 0.00503233 8.61779e-15), Final residual = (1.94733e-26 2.97231e-26 4.92093e-26), No Iterations 102
maxResidual = 0.00503233

ExecutionTime = 10.89 s  ClockTime = 11 s

Time = 106

         Steady solver/PNP-NS Iteration      # 1
BiCGStab:  Solving for PNP, Initial residual = (0.00286128 0.00444654 6.81916e-15), Final residual = (2.99229e-26 4.56665e-26 7.56074e-26), No Iterations 105
maxResidual = 0.00444654

ExecutionTime = 10.98 s  ClockTime = 11 s

Time = 107

         Steady solver/PNP-NS Iteration      # 1
BiCGStab:  Solving for PNP, Initial residual = (0.00319368 0.00479907 8.24928e-15), Final residual = (1.35045e-26 2.06123e-26 3.41215e-26), No Iterations 104
maxResidual = 0.00479907

ExecutionTime = 11.08 s  ClockTime = 11 s

Time = 108

         Steady solver/PNP-NS Iteration      # 1
BiCGStab:  Solving for PNP, Initial residual = (0.00274594 0.00426722 6.68201e-15), Final residual = (2.7239e-26 4.1575e-26 6.88215e-26), No Iterations 101
maxResidual = 0.00426722

ExecutionTime = 11.18 s  ClockTime = 11 s

Time = 109

         Steady solver/PNP-NS Iteration      # 1
BiCGStab:  Solving for PNP, Initial residual = (0.00304687 0.00457908 7.66131e-15), Final residual = (4.43466e-27 6.76885e-27 1.12079e-26), No Iterations 102
maxResidual = 0.00457908

ExecutionTime = 11.28 s  ClockTime = 11 s

Time = 110

         Steady solver/PNP-NS Iteration      # 1
BiCGStab:  Solving for PNP, Initial residual = (0.00263586 0.00409609 6.55234e-15), Final residual = (2.55976e-26 3.90706e-26 6.4703e-26), No Iterations 102
maxResidual = 0.00409609

ExecutionTime = 11.39 s  ClockTime = 11 s

Time = 111

         Steady solver/PNP-NS Iteration      # 1
BiCGStab:  Solving for PNP, Initial residual = (0.00290835 0.00437152 7.6718e-15), Final residual = (2.58011e-26 3.9381e-26 6.51932e-26), No Iterations 103
maxResidual = 0.00437152

ExecutionTime = 11.49 s  ClockTime = 12 s

Time = 112

         Steady solver/PNP-NS Iteration      # 1
BiCGStab:  Solving for PNP, Initial residual = (0.00253082 0.00393278 6.76919e-15), Final residual = (1.63016e-26 2.48896e-26 4.12377e-26), No Iterations 105
maxResidual = 0.00393278

ExecutionTime = 11.59 s  ClockTime = 12 s

Time = 113

         Steady solver/PNP-NS Iteration      # 1
BiCGStab:  Solving for PNP, Initial residual = (0.0027776 0.00417561 7.71168e-15), Final residual = (6.62189e-27 1.01075e-26 1.6743e-26), No Iterations 102
maxResidual = 0.00417561

ExecutionTime = 11.69 s  ClockTime = 12 s

Time = 114

         Steady solver/PNP-NS Iteration      # 1
BiCGStab:  Solving for PNP, Initial residual = (0.00243061 0.00377697 6.3537e-15), Final residual = (2.86805e-26 4.3775e-26 7.24702e-26), No Iterations 106
maxResidual = 0.00377697

ExecutionTime = 11.79 s  ClockTime = 12 s

Time = 115

         Steady solver/PNP-NS Iteration      # 1
BiCGStab:  Solving for PNP, Initial residual = (0.00265413 0.00399062 8.17933e-15), Final residual = (1.40437e-26 2.14328e-26 3.54854e-26), No Iterations 102
maxResidual = 0.00399062

ExecutionTime = 11.88 s  ClockTime = 12 s

Time = 116

         Steady solver/PNP-NS Iteration      # 1
BiCGStab:  Solving for PNP, Initial residual = (0.00233501 0.00362834 6.37611e-15), Final residual = (1.68016e-26 2.5645e-26 4.24492e-26), No Iterations 110
maxResidual = 0.00362834

ExecutionTime = 11.99 s  ClockTime = 12 s

Time = 117

         Steady solver/PNP-NS Iteration      # 1
BiCGStab:  Solving for PNP, Initial residual = (0.00253751 0.00381589 7.99486e-15), Final residual = (1.11344e-26 1.6995e-26 2.81434e-26), No Iterations 102
maxResidual = 0.00381589

ExecutionTime = 12.09 s  ClockTime = 12 s

Time = 118

         Steady solver/PNP-NS Iteration      # 1
BiCGStab:  Solving for PNP, Initial residual = (0.00224383 0.00348657 6.63701e-15), Final residual = (1.08822e-26 1.66096e-26 2.7495e-26), No Iterations 107
maxResidual = 0.00348657

ExecutionTime = 12.19 s  ClockTime = 12 s

Time = 119

         Steady solver/PNP-NS Iteration      # 1
BiCGStab:  Solving for PNP, Initial residual = (0.00242731 0.0036508 7.42053e-15), Final residual = (1.28595e-26 1.96285e-26 3.24938e-26), No Iterations 101
maxResidual = 0.0036508

ExecutionTime = 12.29 s  ClockTime = 12 s

Time = 120

         Steady solver/PNP-NS Iteration      # 1
BiCGStab:  Solving for PNP, Initial residual = (0.00215689 0.00335138 6.53836e-15), Final residual = (1.94608e-26 2.97032e-26 4.91748e-26), No Iterations 106
maxResidual = 0.00335138

ExecutionTime = 12.4 s  ClockTime = 13 s

Time = 121

         Steady solver/PNP-NS Iteration      # 1
BiCGStab:  Solving for PNP, Initial residual = (0.00232317 0.00349477 7.59997e-15), Final residual = (2.5541e-26 3.89814e-26 6.47082e-26), No Iterations 101
maxResidual = 0.00349477

ExecutionTime = 12.5 s  ClockTime = 13 s

Time = 122

         Steady solver/PNP-NS Iteration      # 1
BiCGStab:  Solving for PNP, Initial residual = (0.00207398 0.00322246 6.37769e-15), Final residual = (1.47532e-26 2.25176e-26 3.72831e-26), No Iterations 110
maxResidual = 0.00322246

ExecutionTime = 12.6 s  ClockTime = 13 s

Time = 123

         Steady solver/PNP-NS Iteration      # 1
BiCGStab:  Solving for PNP, Initial residual = (0.0022247 0.00334726 8.0068e-15), Final residual = (2.57056e-26 3.92351e-26 6.49491e-26), No Iterations 103
maxResidual = 0.00334726

ExecutionTime = 12.7 s  ClockTime = 13 s

Time = 124

         Steady solver/PNP-NS Iteration      # 1
BiCGStab:  Solving for PNP, Initial residual = (0.00199494 0.00309955 6.59166e-15), Final residual = (9.43297e-27 1.43972e-26 2.38357e-26), No Iterations 100
maxResidual = 0.00309955

ExecutionTime = 12.81 s  ClockTime = 13 s

Time = 125

         Steady solver/PNP-NS Iteration      # 1
BiCGStab:  Solving for PNP, Initial residual = (0.00213158 0.00320776 7.89274e-15), Final residual = (2.83402e-26 4.32563e-26 7.16081e-26), No Iterations 100
maxResidual = 0.00320776

ExecutionTime = 12.9 s  ClockTime = 13 s

Time = 126

         Steady solver/PNP-NS Iteration      # 1
BiCGStab:  Solving for PNP, Initial residual = (0.00191959 0.00298237 6.54408e-15), Final residual = (2.75944e-26 4.21174e-26 6.97245e-26), No Iterations 103
maxResidual = 0.00298237

ExecutionTime = 13 s  ClockTime = 13 s

Time = 127

         Steady solver/PNP-NS Iteration      # 1
BiCGStab:  Solving for PNP, Initial residual = (0.00204347 0.00307578 7.51236e-15), Final residual = (1.06128e-26 1.62022e-26 2.75972e-26), No Iterations 102
maxResidual = 0.00307578

ExecutionTime = 13.1 s  ClockTime = 13 s

Time = 128

         Steady solver/PNP-NS Iteration      # 1
BiCGStab:  Solving for PNP, Initial residual = (0.00184775 0.00287066 6.58456e-15), Final residual = (2.384e-26 3.63868e-26 6.02503e-26), No Iterations 103
maxResidual = 0.00287066

ExecutionTime = 13.19 s  ClockTime = 13 s

Time = 129

         Steady solver/PNP-NS Iteration      # 1
BiCGStab:  Solving for PNP, Initial residual = (0.0019601 0.00295089 7.86249e-15), Final residual = (1.83817e-26 2.80564e-26 4.6445e-26), No Iterations 102
maxResidual = 0.00295089

ExecutionTime = 13.29 s  ClockTime = 13 s

Time = 130

         Steady solver/PNP-NS Iteration      # 1
BiCGStab:  Solving for PNP, Initial residual = (0.00177928 0.00276417 6.58349e-15), Final residual = (2.75191e-26 4.20024e-26 6.95497e-26), No Iterations 103
maxResidual = 0.00276417

ExecutionTime = 13.4 s  ClockTime = 14 s

Time = 131

         Steady solver/PNP-NS Iteration      # 1
BiCGStab:  Solving for PNP, Initial residual = (0.00188117 0.00283267 7.56683e-15), Final residual = (1.91278e-26 2.91966e-26 4.8336e-26), No Iterations 104
maxResidual = 0.00283267

ExecutionTime = 13.5 s  ClockTime = 14 s

Time = 132

         Steady solver/PNP-NS Iteration      # 1
BiCGStab:  Solving for PNP, Initial residual = (0.001714 0.00266265 6.59574e-15), Final residual = (1.63832e-26 2.50058e-26 4.13962e-26), No Iterations 102
maxResidual = 0.00266265

ExecutionTime = 13.6 s  ClockTime = 14 s

Time = 133

         Steady solver/PNP-NS Iteration      # 1
BiCGStab:  Solving for PNP, Initial residual = (0.00180643 0.00272071 7.85028e-15), Final residual = (2.65604e-26 4.05397e-26 6.7114e-26), No Iterations 103
maxResidual = 0.00272071

ExecutionTime = 13.7 s  ClockTime = 14 s

Time = 134

         Steady solver/PNP-NS Iteration      # 1
BiCGStab:  Solving for PNP, Initial residual = (0.00165178 0.00256587 6.41724e-15), Final residual = (9.28213e-27 1.41667e-26 2.34534e-26), No Iterations 106
maxResidual = 0.00256587

ExecutionTime = 13.8 s  ClockTime = 14 s

Time = 135

         Steady solver/PNP-NS Iteration      # 1
BiCGStab:  Solving for PNP, Initial residual = (0.00173562 0.00261467 7.44137e-15), Final residual = (4.9468e-27 7.54599e-27 1.26375e-26), No Iterations 102
maxResidual = 0.00261467

ExecutionTime = 13.9 s  ClockTime = 14 s

Time = 136

         Steady solver/PNP-NS Iteration      # 1
BiCGStab:  Solving for PNP, Initial residual = (0.00159246 0.00247362 6.30131e-15), Final residual = (2.452e-26 3.7425e-26 6.19532e-26), No Iterations 105
maxResidual = 0.00247362

ExecutionTime = 14 s  ClockTime = 14 s

Time = 137

         Steady solver/PNP-NS Iteration      # 1
BiCGStab:  Solving for PNP, Initial residual = (0.00166854 0.0025142 7.01587e-15), Final residual = (1.52363e-26 2.32554e-26 3.84962e-26), No Iterations 102
maxResidual = 0.0025142

ExecutionTime = 14.1 s  ClockTime = 14 s

Time = 138

         Steady solver/PNP-NS Iteration      # 1
BiCGStab:  Solving for PNP, Initial residual = (0.00153593 0.00238569 6.58047e-15), Final residual = (2.78988e-26 4.25782e-26 7.04775e-26), No Iterations 106
maxResidual = 0.00238569

ExecutionTime = 14.2 s  ClockTime = 14 s

Time = 139

         Steady solver/PNP-NS Iteration      # 1
BiCGStab:  Solving for PNP, Initial residual = (0.00160496 0.00241898 7.57369e-15), Final residual = (1.36043e-26 2.07646e-26 3.43906e-26), No Iterations 103
maxResidual = 0.00241898

ExecutionTime = 14.3 s  ClockTime = 14 s

Time = 140

         Steady solver/PNP-NS Iteration      # 1
BiCGStab:  Solving for PNP, Initial residual = (0.00148204 0.00230187 6.34164e-15), Final residual = (1.77282e-26 2.70853e-26 4.48806e-26), No Iterations 106
maxResidual = 0.00230187

ExecutionTime = 14.41 s  ClockTime = 15 s

Time = 141

         Steady solver/PNP-NS Iteration      # 1
BiCGStab:  Solving for PNP, Initial residual = (0.0015447 0.00232873 7.52729e-15), Final residual = (2.36725e-26 3.6132e-26 5.98142e-26), No Iterations 101
maxResidual = 0.00232873

ExecutionTime = 14.51 s  ClockTime = 15 s

Time = 142

         Steady solver/PNP-NS Iteration      # 1
BiCGStab:  Solving for PNP, Initial residual = (0.00143068 0.00222198 6.37515e-15), Final residual = (2.54209e-26 3.88003e-26 6.42335e-26), No Iterations 105
maxResidual = 0.00222198

ExecutionTime = 14.61 s  ClockTime = 15 s

Time = 143

         Steady solver/PNP-NS Iteration      # 1
BiCGStab:  Solving for PNP, Initial residual = (0.00148756 0.00224315 7.54479e-15), Final residual = (2.57204e-26 3.92602e-26 6.49826e-26), No Iterations 102
maxResidual = 0.00224315

ExecutionTime = 14.71 s  ClockTime = 15 s

Time = 144

         Steady solver/PNP-NS Iteration      # 1
BiCGStab:  Solving for PNP, Initial residual = (0.00138173 0.00214584 6.24411e-15), Final residual = (1.96676e-26 3.00535e-26 4.98169e-26), No Iterations 104
maxResidual = 0.00214584

ExecutionTime = 14.81 s  ClockTime = 15 s

Time = 145

         Steady solver/PNP-NS Iteration      # 1
BiCGStab:  Solving for PNP, Initial residual = (0.00143337 0.002162 7.18057e-15), Final residual = (2.78766e-26 4.25411e-26 7.05152e-26), No Iterations 101
maxResidual = 0.002162

ExecutionTime = 14.9 s  ClockTime = 15 s

Time = 146

         Steady solver/PNP-NS Iteration      # 1
BiCGStab:  Solving for PNP, Initial residual = (0.00133508 0.00207327 6.29135e-15), Final residual = (1.85892e-26 2.83733e-26 4.70221e-26), No Iterations 106
maxResidual = 0.00207327

ExecutionTime = 15 s  ClockTime = 15 s

Time = 147

         Steady solver/PNP-NS Iteration      # 1
BiCGStab:  Solving for PNP, Initial residual = (0.00138196 0.00208503 7.36143e-15), Final residual = (1.35538e-26 2.06874e-26 3.42488e-26), No Iterations 102
maxResidual = 0.00208503

ExecutionTime = 15.1 s  ClockTime = 15 s

Time = 148

         Steady solver/PNP-NS Iteration      # 1
BiCGStab:  Solving for PNP, Initial residual = (0.00129061 0.0020041 6.27143e-15), Final residual = (1.61471e-26 2.46516e-26 4.08511e-26), No Iterations 102
maxResidual = 0.0020041

ExecutionTime = 15.2 s  ClockTime = 15 s

Time = 149

         Steady solver/PNP-NS Iteration      # 1
BiCGStab:  Solving for PNP, Initial residual = (0.0013332 0.002012 7.58717e-15), Final residual = (1.97322e-26 3.01177e-26 4.98716e-26), No Iterations 102
maxResidual = 0.002012

ExecutionTime = 15.3 s  ClockTime = 15 s

Time = 150

         Steady solver/PNP-NS Iteration      # 1
BiCGStab:  Solving for PNP, Initial residual = (0.00124823 0.00193818 6.04506e-15), Final residual = (1.31188e-26 2.00228e-26 3.32013e-26), No Iterations 105
maxResidual = 0.00193818

ExecutionTime = 15.41 s  ClockTime = 16 s

Time = 151

         Steady solver/PNP-NS Iteration      # 1
BiCGStab:  Solving for PNP, Initial residual = (0.00128691 0.0019427 7.17985e-15), Final residual = (2.30326e-26 3.51551e-26 5.8244e-26), No Iterations 99
maxResidual = 0.0019427

ExecutionTime = 15.51 s  ClockTime = 16 s

Time = 152

         Steady solver/PNP-NS Iteration      # 1
BiCGStab:  Solving for PNP, Initial residual = (0.00120784 0.00187535 6.24281e-15), Final residual = (2.72731e-26 4.16271e-26 6.89096e-26), No Iterations 104
maxResidual = 0.00187535

ExecutionTime = 15.61 s  ClockTime = 16 s

Time = 153

         Steady solver/PNP-NS Iteration      # 1
BiCGStab:  Solving for PNP, Initial residual = (0.00124298 0.00187692 6.95751e-15), Final residual = (1.59855e-26 2.4399e-26 4.03997e-26), No Iterations 101
maxResidual = 0.00187692

ExecutionTime = 15.7 s  ClockTime = 16 s

Time = 154

         Steady solver/PNP-NS Iteration      # 1
BiCGStab:  Solving for PNP, Initial residual = (0.00116934 0.00181545 5.91457e-15), Final residual = (2.12164e-26 3.23494e-26 5.35118e-26), No Iterations 103
maxResidual = 0.00181545

ExecutionTime = 15.8 s  ClockTime = 16 s

Time = 155

         Steady solver/PNP-NS Iteration      # 1
BiCGStab:  Solving for PNP, Initial residual = (0.00120126 0.00181446 7.48744e-15), Final residual = (2.5358e-26 3.86968e-26 6.41366e-26), No Iterations 101
maxResidual = 0.00181446

ExecutionTime = 15.9 s  ClockTime = 16 s

Time = 156

         Steady solver/PNP-NS Iteration      # 1
BiCGStab:  Solving for PNP, Initial residual = (0.00113264 0.00175836 6.12752e-15), Final residual = (1.97933e-26 3.02106e-26 5.00127e-26), No Iterations 102
maxResidual = 0.00175836

ExecutionTime = 16 s  ClockTime = 16 s

Time = 157

         Steady solver/PNP-NS Iteration      # 1
BiCGStab:  Solving for PNP, Initial residual = (0.00116164 0.00175515 7.35954e-15), Final residual = (2.42029e-26 3.69448e-26 6.11579e-26), No Iterations 104
maxResidual = 0.00175515

ExecutionTime = 16.1 s  ClockTime = 16 s

Time = 158

         Steady solver/PNP-NS Iteration      # 1
BiCGStab:  Solving for PNP, Initial residual = (0.00109766 0.00170392 7.06985e-15), Final residual = (8.1638e-27 1.24605e-26 2.06299e-26), No Iterations 108
maxResidual = 0.00170392

ExecutionTime = 16.2 s  ClockTime = 16 s

Time = 159

         Steady solver/PNP-NS Iteration      # 1
BiCGStab:  Solving for PNP, Initial residual = (0.00112401 0.0016988 7.80921e-15), Final residual = (3.04816e-26 4.65243e-26 7.70383e-26), No Iterations 103
maxResidual = 0.0016988

ExecutionTime = 16.3 s  ClockTime = 16 s

Time = 160

         Steady solver/PNP-NS Iteration      # 1
BiCGStab:  Solving for PNP, Initial residual = (0.0010643 0.00165203 6.6194e-15), Final residual = (1.10723e-26 1.68966e-26 2.80259e-26), No Iterations 108
maxResidual = 0.00165203

ExecutionTime = 16.42 s  ClockTime = 17 s

Time = 161

         Steady solver/PNP-NS Iteration      # 1
BiCGStab:  Solving for PNP, Initial residual = (0.00108825 0.00164526 7.90057e-15), Final residual = (3.06734e-26 4.68246e-26 7.76084e-26), No Iterations 108
maxResidual = 0.00164526

ExecutionTime = 16.53 s  ClockTime = 17 s

Time = 162

         Steady solver/PNP-NS Iteration      # 1
BiCGStab:  Solving for PNP, Initial residual = (0.0010325 0.00160254 7.38857e-15), Final residual = (3.08534e-26 4.70921e-26 7.7959e-26), No Iterations 106
maxResidual = 0.00160254

ExecutionTime = 16.63 s  ClockTime = 17 s

Time = 163

         Steady solver/PNP-NS Iteration      # 1
BiCGStab:  Solving for PNP, Initial residual = (0.00105426 0.00159438 7.21409e-15), Final residual = (3.0727e-26 4.68991e-26 7.76569e-26), No Iterations 106
maxResidual = 0.00159438

ExecutionTime = 16.73 s  ClockTime = 17 s

Time = 164

         Steady solver/PNP-NS Iteration      # 1
BiCGStab:  Solving for PNP, Initial residual = (0.00100217 0.00155536 7.38251e-15), Final residual = (1.61489e-26 2.46458e-26 4.07984e-26), No Iterations 102
maxResidual = 0.00155536

ExecutionTime = 16.83 s  ClockTime = 17 s

Time = 165

         Steady solver/PNP-NS Iteration      # 1
BiCGStab:  Solving for PNP, Initial residual = (0.00102195 0.00154601 7.3094e-15), Final residual = (2.64442e-26 4.03717e-26 6.68319e-26), No Iterations 103
maxResidual = 0.00154601

ExecutionTime = 16.93 s  ClockTime = 17 s

Time = 166

         Steady solver/PNP-NS Iteration      # 1
BiCGStab:  Solving for PNP, Initial residual = (0.00097325 0.00151036 6.60312e-15), Final residual = (2.31923e-26 3.54239e-26 5.86587e-26), No Iterations 103
maxResidual = 0.00151036

ExecutionTime = 17.03 s  ClockTime = 17 s

Time = 167

         Steady solver/PNP-NS Iteration      # 1
BiCGStab:  Solving for PNP, Initial residual = (0.00099123 0.00150003 7.15438e-15), Final residual = (2.21888e-26 3.38668e-26 5.60919e-26), No Iterations 104
maxResidual = 0.00150003

ExecutionTime = 17.13 s  ClockTime = 17 s

Time = 168

         Steady solver/PNP-NS Iteration      # 1
BiCGStab:  Solving for PNP, Initial residual = (0.000945672 0.00146745 7.27876e-15), Final residual = (1.50497e-26 2.29704e-26 3.80281e-26), No Iterations 104
maxResidual = 0.00146745

ExecutionTime = 17.23 s  ClockTime = 17 s

Time = 169

         Steady solver/PNP-NS Iteration      # 1
BiCGStab:  Solving for PNP, Initial residual = (0.000962017 0.0014563 6.91515e-15), Final residual = (3.17989e-26 4.84578e-26 8.08597e-26), No Iterations 103
maxResidual = 0.0014563

ExecutionTime = 17.33 s  ClockTime = 18 s

Time = 170

         Steady solver/PNP-NS Iteration      # 1
BiCGStab:  Solving for PNP, Initial residual = (0.000919371 0.00142653 6.91841e-15), Final residual = (2.22977e-26 3.40332e-26 5.63442e-26), No Iterations 103
maxResidual = 0.00142653

ExecutionTime = 17.44 s  ClockTime = 18 s

Time = 171

         Steady solver/PNP-NS Iteration      # 1
BiCGStab:  Solving for PNP, Initial residual = (0.000934232 0.00141471 7.1948e-15), Final residual = (2.35424e-26 3.592e-26 5.95103e-26), No Iterations 103
maxResidual = 0.00141471

ExecutionTime = 17.54 s  ClockTime = 18 s

Time = 172

         Steady solver/PNP-NS Iteration      # 1
BiCGStab:  Solving for PNP, Initial residual = (0.000894287 0.0013875 6.56367e-15), Final residual = (1.99745e-26 3.04893e-26 5.04906e-26), No Iterations 105
maxResidual = 0.0013875

ExecutionTime = 17.64 s  ClockTime = 18 s

Time = 173

         Steady solver/PNP-NS Iteration      # 1
BiCGStab:  Solving for PNP, Initial residual = (0.000907798 0.00137514 6.95048e-15), Final residual = (2.79858e-26 4.27152e-26 7.07197e-26), No Iterations 105
maxResidual = 0.00137514

ExecutionTime = 17.74 s  ClockTime = 18 s

Time = 174

         Steady solver/PNP-NS Iteration      # 1
BiCGStab:  Solving for PNP, Initial residual = (0.000870361 0.00135027 6.53757e-15), Final residual = (1.50962e-26 2.30415e-26 3.81475e-26), No Iterations 104
maxResidual = 0.00135027

ExecutionTime = 17.85 s  ClockTime = 18 s

Time = 175

         Steady solver/PNP-NS Iteration      # 1
BiCGStab:  Solving for PNP, Initial residual = (0.000882646 0.00133749 7.2062e-15), Final residual = (2.65671e-26 4.05496e-26 6.71546e-26), No Iterations 102
maxResidual = 0.00133749

ExecutionTime = 17.95 s  ClockTime = 18 s

Time = 176

         Steady solver/PNP-NS Iteration      # 1
BiCGStab:  Solving for PNP, Initial residual = (0.000847536 0.00131475 6.41893e-15), Final residual = (1.69332e-26 2.58453e-26 4.2801e-26), No Iterations 103
maxResidual = 0.00131475

ExecutionTime = 18.04 s  ClockTime = 18 s

Time = 177

         Steady solver/PNP-NS Iteration      # 1
BiCGStab:  Solving for PNP, Initial residual = (0.000858707 0.00130166 7.58235e-15), Final residual = (6.71883e-27 1.02761e-26 1.70389e-26), No Iterations 102
maxResidual = 0.00130166

ExecutionTime = 18.14 s  ClockTime = 18 s

Time = 178

         Steady solver/PNP-NS Iteration      # 1
BiCGStab:  Solving for PNP, Initial residual = (0.000825761 0.00128087 6.28035e-15), Final residual = (1.96742e-26 3.01338e-26 4.97144e-26), No Iterations 105
maxResidual = 0.00128087

ExecutionTime = 18.24 s  ClockTime = 18 s

Time = 179

         Steady solver/PNP-NS Iteration      # 1
BiCGStab:  Solving for PNP, Initial residual = (0.000835918 0.00126756 6.46413e-15), Final residual = (1.28019e-26 1.95397e-26 3.23577e-26), No Iterations 103
maxResidual = 0.00126756

ExecutionTime = 18.34 s  ClockTime = 19 s

Time = 180

         Steady solver/PNP-NS Iteration      # 1
BiCGStab:  Solving for PNP, Initial residual = (0.000804984 0.00124853 6.23517e-15), Final residual = (9.07226e-27 1.38477e-26 2.29298e-26), No Iterations 103
maxResidual = 0.00124853

ExecutionTime = 18.45 s  ClockTime = 19 s

Time = 181

         Steady solver/PNP-NS Iteration      # 1
BiCGStab:  Solving for PNP, Initial residual = (0.000814219 0.00123508 6.74222e-15), Final residual = (2.40389e-26 3.66926e-26 6.07465e-26), No Iterations 104
maxResidual = 0.00123508

ExecutionTime = 18.55 s  ClockTime = 19 s

Time = 182

         Steady solver/PNP-NS Iteration      # 1
BiCGStab:  Solving for PNP, Initial residual = (0.000785156 0.00121768 6.57893e-15), Final residual = (1.94787e-26 2.97301e-26 4.92769e-26), No Iterations 104
maxResidual = 0.00121768

ExecutionTime = 18.65 s  ClockTime = 19 s

Time = 183

         Steady solver/PNP-NS Iteration      # 1
BiCGStab:  Solving for PNP, Initial residual = (0.000793552 0.00120415 6.58465e-15), Final residual = (1.04587e-26 1.59586e-26 2.64346e-26), No Iterations 101
maxResidual = 0.00120415

ExecutionTime = 18.75 s  ClockTime = 19 s

Time = 184

         Steady solver/PNP-NS Iteration      # 1
BiCGStab:  Solving for PNP, Initial residual = (0.00076623 0.00118823 6.11157e-15), Final residual = (3.15491e-26 4.81535e-26 7.97564e-26), No Iterations 102
maxResidual = 0.00118823

ExecutionTime = 18.85 s  ClockTime = 19 s

Time = 185

         Steady solver/PNP-NS Iteration      # 1
BiCGStab:  Solving for PNP, Initial residual = (0.000773863 0.00117469 6.37304e-15), Final residual = (2.02342e-26 3.06122e-26 5.38089e-26), No Iterations 103
maxResidual = 0.00117469

ExecutionTime = 18.95 s  ClockTime = 19 s

Time = 186

         Steady solver/PNP-NS Iteration      # 1
BiCGStab:  Solving for PNP, Initial residual = (0.000748164 0.00116011 7.24278e-15), Final residual = (1.27426e-26 1.94032e-26 3.23225e-26), No Iterations 109
maxResidual = 0.00116011

ExecutionTime = 19.05 s  ClockTime = 19 s

Time = 187

         Steady solver/PNP-NS Iteration      # 1
BiCGStab:  Solving for PNP, Initial residual = (0.000755102 0.00114661 6.71964e-15), Final residual = (2.04714e-26 3.12369e-26 5.18336e-26), No Iterations 101
maxResidual = 0.00114661

ExecutionTime = 19.15 s  ClockTime = 19 s

Time = 188

         Steady solver/PNP-NS Iteration      # 1
BiCGStab:  Solving for PNP, Initial residual = (0.000730915 0.00113327 6.75444e-15), Final residual = (2.05099e-26 3.13585e-26 5.20282e-26), No Iterations 106
maxResidual = 0.00113327

ExecutionTime = 19.25 s  ClockTime = 20 s

Time = 189

         Steady solver/PNP-NS Iteration      # 1
BiCGStab:  Solving for PNP, Initial residual = (0.00073722 0.00111985 6.52368e-15), Final residual = (1.92096e-26 2.93199e-26 4.85477e-26), No Iterations 101
maxResidual = 0.00111985

ExecutionTime = 19.35 s  ClockTime = 20 s

Time = 190

         Steady solver/PNP-NS Iteration      # 1
BiCGStab:  Solving for PNP, Initial residual = (0.000714443 0.00110763 6.59701e-15), Final residual = (1.06948e-26 1.62993e-26 2.69816e-26), No Iterations 103
maxResidual = 0.00110763

ExecutionTime = 19.45 s  ClockTime = 20 s

Time = 191

         Steady solver/PNP-NS Iteration      # 1
BiCGStab:  Solving for PNP, Initial residual = (0.000720172 0.00109434 6.78411e-15), Final residual = (1.73582e-26 2.64961e-26 4.39165e-26), No Iterations 102
maxResidual = 0.00109434

ExecutionTime = 19.55 s  ClockTime = 20 s

Time = 192

         Steady solver/PNP-NS Iteration      # 1
BiCGStab:  Solving for PNP, Initial residual = (0.000698711 0.00108315 6.88848e-15), Final residual = (2.32423e-26 3.54806e-26 5.87859e-26), No Iterations 103
maxResidual = 0.00108315

ExecutionTime = 19.66 s  ClockTime = 20 s

Time = 193

         Steady solver/PNP-NS Iteration      # 1
BiCGStab:  Solving for PNP, Initial residual = (0.000703915 0.00107001 6.57763e-15), Final residual = (5.84512e-27 8.92148e-27 1.47707e-26), No Iterations 103
maxResidual = 0.00107001

ExecutionTime = 19.76 s  ClockTime = 20 s

Time = 194

         Steady solver/PNP-NS Iteration      # 1
BiCGStab:  Solving for PNP, Initial residual = (0.000683683 0.00105976 6.15479e-15), Final residual = (1.22055e-26 1.86289e-26 3.08413e-26), No Iterations 101
maxResidual = 0.00105976

ExecutionTime = 19.85 s  ClockTime = 20 s

Time = 195

         Steady solver/PNP-NS Iteration      # 1
BiCGStab:  Solving for PNP, Initial residual = (0.000688409 0.00104681 6.26782e-15), Final residual = (7.10783e-27 1.08484e-26 1.79802e-26), No Iterations 102
maxResidual = 0.00104681

ExecutionTime = 19.95 s  ClockTime = 20 s

Time = 196

         Steady solver/PNP-NS Iteration      # 1
BiCGStab:  Solving for PNP, Initial residual = (0.000669325 0.00103742 5.99695e-15), Final residual = (1.31835e-26 2.01223e-26 3.33279e-26), No Iterations 102
maxResidual = 0.00103742

ExecutionTime = 20.05 s  ClockTime = 20 s

Time = 197

         Steady solver/PNP-NS Iteration      # 1
BiCGStab:  Solving for PNP, Initial residual = (0.000673616 0.00102467 6.28031e-15), Final residual = (1.31109e-26 2.00109e-26 3.31331e-26), No Iterations 102
maxResidual = 0.00102467

ExecutionTime = 20.15 s  ClockTime = 20 s

Time = 198

         Steady solver/PNP-NS Iteration      # 1
BiCGStab:  Solving for PNP, Initial residual = (0.000655606 0.00101607 6.18656e-15), Final residual = (1.67217e-26 2.5556e-26 4.23207e-26), No Iterations 105
maxResidual = 0.00101607

ExecutionTime = 20.25 s  ClockTime = 21 s

Time = 199

         Steady solver/PNP-NS Iteration      # 1
BiCGStab:  Solving for PNP, Initial residual = (0.000659501 0.00100355 6.17842e-15), Final residual = (2.2815e-26 3.48227e-26 5.76694e-26), No Iterations 102
maxResidual = 0.00100355

ExecutionTime = 20.35 s  ClockTime = 21 s

Time = 200

         Steady solver/PNP-NS Iteration      # 1
BiCGStab:  Solving for PNP, Initial residual = (0.000642495 0.000995667 6.13372e-15), Final residual = (3.48754e-27 5.32303e-27 8.81636e-27), No Iterations 101
maxResidual = 0.000995667

ExecutionTime = 20.46 s  ClockTime = 21 s

Time = 201

         Steady solver/PNP-NS Iteration      # 1
BiCGStab:  Solving for PNP, Initial residual = (0.000646029 0.000983392 6.4507e-15), Final residual = (3.13871e-26 4.79063e-26 7.93328e-26), No Iterations 102
maxResidual = 0.000983392

ExecutionTime = 20.56 s  ClockTime = 21 s

Time = 202

         Steady solver/PNP-NS Iteration      # 1
BiCGStab:  Solving for PNP, Initial residual = (0.000629964 0.000976165 6.00246e-15), Final residual = (2.57811e-26 3.93885e-26 6.57056e-26), No Iterations 104
maxResidual = 0.000976165

ExecutionTime = 20.66 s  ClockTime = 21 s

Time = 203

         Steady solver/PNP-NS Iteration      # 1
BiCGStab:  Solving for PNP, Initial residual = (0.000633168 0.000964147 7.15677e-15), Final residual = (9.64552e-27 1.4722e-26 2.43876e-26), No Iterations 105
maxResidual = 0.000964147

ExecutionTime = 20.76 s  ClockTime = 21 s

Time = 204

         Steady solver/PNP-NS Iteration      # 1
BiCGStab:  Solving for PNP, Initial residual = (0.000617983 0.000957521 6.6403e-15), Final residual = (1.01313e-26 1.54625e-26 2.56127e-26), No Iterations 101
maxResidual = 0.000957521

ExecutionTime = 20.86 s  ClockTime = 21 s

Time = 205

         Steady solver/PNP-NS Iteration      # 1
BiCGStab:  Solving for PNP, Initial residual = (0.000620887 0.000945771 6.27217e-15), Final residual = (3.19133e-26 4.87095e-26 8.06704e-26), No Iterations 100
maxResidual = 0.000945771

ExecutionTime = 20.96 s  ClockTime = 21 s

Time = 206

         Steady solver/PNP-NS Iteration      # 1
BiCGStab:  Solving for PNP, Initial residual = (0.000606527 0.000939694 6.21821e-15), Final residual = (2.22028e-26 3.38861e-26 5.61015e-26), No Iterations 112
maxResidual = 0.000939694

ExecutionTime = 21.06 s  ClockTime = 21 s

Time = 207

         Steady solver/PNP-NS Iteration      # 1
BiCGStab:  Solving for PNP, Initial residual = (0.000609158 0.00092822 6.67874e-15), Final residual = (2.33002e-26 3.556e-26 5.89409e-26), No Iterations 105
maxResidual = 0.00092822

ExecutionTime = 21.16 s  ClockTime = 21 s

Time = 208

         Steady solver/PNP-NS Iteration      # 1
BiCGStab:  Solving for PNP, Initial residual = (0.000595571 0.000922644 6.43227e-15), Final residual = (1.79178e-26 2.73467e-26 4.52941e-26), No Iterations 106
maxResidual = 0.000922644

ExecutionTime = 21.26 s  ClockTime = 22 s

Time = 209

         Steady solver/PNP-NS Iteration      # 1
BiCGStab:  Solving for PNP, Initial residual = (0.000597952 0.000911452 6.51347e-15), Final residual = (3.06515e-26 4.67837e-26 7.74691e-26), No Iterations 103
maxResidual = 0.000911452

ExecutionTime = 21.37 s  ClockTime = 22 s

Time = 210

         Steady solver/PNP-NS Iteration      # 1
BiCGStab:  Solving for PNP, Initial residual = (0.00058509 0.000906335 6.30003e-15), Final residual = (2.8364e-26 4.32927e-26 7.1679e-26), No Iterations 103
maxResidual = 0.000906335

ExecutionTime = 21.47 s  ClockTime = 22 s

Time = 211

         Steady solver/PNP-NS Iteration      # 1
BiCGStab:  Solving for PNP, Initial residual = (0.000587243 0.000895428 6.24654e-15), Final residual = (1.1556e-26 1.76381e-26 2.92254e-26), No Iterations 104
maxResidual = 0.000895428

ExecutionTime = 21.58 s  ClockTime = 22 s

Time = 212

         Steady solver/PNP-NS Iteration      # 1
BiCGStab:  Solving for PNP, Initial residual = (0.000575062 0.00089073 6.31789e-15), Final residual = (1.29552e-26 1.97758e-26 3.3004e-26), No Iterations 118
maxResidual = 0.00089073

ExecutionTime = 21.69 s  ClockTime = 22 s

Time = 213

         Steady solver/PNP-NS Iteration      # 1
BiCGStab:  Solving for PNP, Initial residual = (0.000577007 0.00088011 6.61406e-15), Final residual = (2.78499e-26 4.25074e-26 7.04123e-26), No Iterations 105
maxResidual = 0.00088011

ExecutionTime = 21.79 s  ClockTime = 22 s

Time = 214

         Steady solver/PNP-NS Iteration      # 1
BiCGStab:  Solving for PNP, Initial residual = (0.000565464 0.000875795 6.06679e-15), Final residual = (1.28633e-26 1.9638e-26 3.25e-26), No Iterations 99
maxResidual = 0.000875795

ExecutionTime = 21.89 s  ClockTime = 22 s

Time = 215

         Steady solver/PNP-NS Iteration      # 1
BiCGStab:  Solving for PNP, Initial residual = (0.000567219 0.000865464 5.93867e-15), Final residual = (5.82322e-27 8.88765e-27 1.47388e-26), No Iterations 103
maxResidual = 0.000865464

ExecutionTime = 21.99 s  ClockTime = 22 s

Time = 216

         Steady solver/PNP-NS Iteration      # 1
BiCGStab:  Solving for PNP, Initial residual = (0.000556276 0.000861498 6.18132e-15), Final residual = (2.36281e-26 3.60636e-26 5.97277e-26), No Iterations 101
maxResidual = 0.000861498

ExecutionTime = 22.09 s  ClockTime = 22 s

Time = 217

         Steady solver/PNP-NS Iteration      # 1
BiCGStab:  Solving for PNP, Initial residual = (0.000557856 0.000851454 6.41847e-15), Final residual = (2.11524e-26 3.22857e-26 5.34812e-26), No Iterations 102
maxResidual = 0.000851454

ExecutionTime = 22.19 s  ClockTime = 23 s

Time = 218

         Steady solver/PNP-NS Iteration      # 1
BiCGStab:  Solving for PNP, Initial residual = (0.000547478 0.000847808 6.43712e-15), Final residual = (3.05366e-26 4.66171e-26 7.71934e-26), No Iterations 100
maxResidual = 0.000847808

ExecutionTime = 22.29 s  ClockTime = 23 s

Time = 219

         Steady solver/PNP-NS Iteration      # 1
BiCGStab:  Solving for PNP, Initial residual = (0.000548899 0.00083805 6.46256e-15), Final residual = (1.32424e-26 2.02142e-26 3.3475e-26), No Iterations 108
maxResidual = 0.00083805

ExecutionTime = 22.4 s  ClockTime = 23 s

Time = 220

         Steady solver/PNP-NS Iteration      # 1
BiCGStab:  Solving for PNP, Initial residual = (0.00053905 0.000834695 6.47604e-15), Final residual = (3.06565e-26 4.67911e-26 7.74984e-26), No Iterations 103
maxResidual = 0.000834695

ExecutionTime = 22.5 s  ClockTime = 23 s

Time = 221

         Steady solver/PNP-NS Iteration      # 1
BiCGStab:  Solving for PNP, Initial residual = (0.000540326 0.000825221 6.24116e-15), Final residual = (5.21186e-27 7.95202e-27 1.31776e-26), No Iterations 115
maxResidual = 0.000825221

ExecutionTime = 22.61 s  ClockTime = 23 s

Time = 222

         Steady solver/PNP-NS Iteration      # 1
BiCGStab:  Solving for PNP, Initial residual = (0.000530976 0.000822133 6.29935e-15), Final residual = (2.41854e-26 3.68976e-26 6.11526e-26), No Iterations 104
maxResidual = 0.000822133

ExecutionTime = 22.71 s  ClockTime = 23 s

Time = 223

         Steady solver/PNP-NS Iteration      # 1
BiCGStab:  Solving for PNP, Initial residual = (0.000532118 0.000812938 6.2319e-15), Final residual = (1.85208e-26 2.82678e-26 4.68897e-26), No Iterations 114
maxResidual = 0.000812938

ExecutionTime = 22.82 s  ClockTime = 23 s

Time = 224

         Steady solver/PNP-NS Iteration      # 1
BiCGStab:  Solving for PNP, Initial residual = (0.000523237 0.000810093 5.68047e-15), Final residual = (3.027e-26 4.62013e-26 7.65102e-26), No Iterations 101
maxResidual = 0.000810093

ExecutionTime = 22.92 s  ClockTime = 23 s

Time = 225

         Steady solver/PNP-NS Iteration      # 1
BiCGStab:  Solving for PNP, Initial residual = (0.000524258 0.000801175 6.01163e-15), Final residual = (1.32388e-26 2.02058e-26 3.35098e-26), No Iterations 107
maxResidual = 0.000801175

ExecutionTime = 23.02 s  ClockTime = 23 s

Time = 226

         Steady solver/PNP-NS Iteration      # 1
BiCGStab:  Solving for PNP, Initial residual = (0.000515819 0.000798553 6.05594e-15), Final residual = (2.65807e-26 4.05703e-26 6.71804e-26), No Iterations 103
maxResidual = 0.000798553

ExecutionTime = 23.13 s  ClockTime = 23 s

Time = 227

         Steady solver/PNP-NS Iteration      # 1
BiCGStab:  Solving for PNP, Initial residual = (0.000516728 0.000789906 5.90283e-15), Final residual = (2.42959e-26 3.7083e-26 6.13965e-26), No Iterations 110
maxResidual = 0.000789906

ExecutionTime = 23.23 s  ClockTime = 24 s

Time = 228

         Steady solver/PNP-NS Iteration      # 1
BiCGStab:  Solving for PNP, Initial residual = (0.000508706 0.000787487 6.54188e-15), Final residual = (2.2948e-26 3.50258e-26 5.80314e-26), No Iterations 114
maxResidual = 0.000787487

ExecutionTime = 23.34 s  ClockTime = 24 s

Time = 229

         Steady solver/PNP-NS Iteration      # 1
BiCGStab:  Solving for PNP, Initial residual = (0.000509513 0.000779108 6.16166e-15), Final residual = (8.9233e-27 1.36197e-26 2.25516e-26), No Iterations 104
maxResidual = 0.000779108

ExecutionTime = 23.44 s  ClockTime = 24 s

Time = 230

         Steady solver/PNP-NS Iteration      # 1
BiCGStab:  Solving for PNP, Initial residual = (0.000501884 0.000776875 5.76e-15), Final residual = (1.83411e-26 2.7994e-26 4.63687e-26), No Iterations 102
maxResidual = 0.000776875

ExecutionTime = 23.55 s  ClockTime = 24 s

Time = 231

         Steady solver/PNP-NS Iteration      # 1
BiCGStab:  Solving for PNP, Initial residual = (0.000502597 0.000768757 5.5015e-15), Final residual = (2.82588e-26 4.31316e-26 7.14189e-26), No Iterations 105
maxResidual = 0.000768757

ExecutionTime = 23.65 s  ClockTime = 24 s

Time = 232

         Steady solver/PNP-NS Iteration      # 1
BiCGStab:  Solving for PNP, Initial residual = (0.000495338 0.000766694 5.70949e-15), Final residual = (1.25488e-26 1.91532e-26 3.17259e-26), No Iterations 106
maxResidual = 0.000766694

ExecutionTime = 23.76 s  ClockTime = 24 s

Time = 233

         Steady solver/PNP-NS Iteration      # 1
BiCGStab:  Solving for PNP, Initial residual = (0.000495967 0.000758832 5.76529e-15), Final residual = (3.01131e-26 4.59963e-26 7.64542e-26), No Iterations 105
maxResidual = 0.000758832

ExecutionTime = 23.86 s  ClockTime = 24 s

Time = 234

         Steady solver/PNP-NS Iteration      # 1
BiCGStab:  Solving for PNP, Initial residual = (0.000489057 0.000756924 5.90396e-15), Final residual = (2.05399e-26 3.13502e-26 5.19217e-26), No Iterations 100
maxResidual = 0.000756924

ExecutionTime = 23.96 s  ClockTime = 24 s

Time = 235

         Steady solver/PNP-NS Iteration      # 1
BiCGStab:  Solving for PNP, Initial residual = (0.000489607 0.000749314 6.13129e-15), Final residual = (1.28012e-26 1.95391e-26 3.23553e-26), No Iterations 102
maxResidual = 0.000749314

ExecutionTime = 24.06 s  ClockTime = 24 s

Time = 236

         Steady solver/PNP-NS Iteration      # 1
BiCGStab:  Solving for PNP, Initial residual = (0.000483028 0.000747547 5.56801e-15), Final residual = (1.29355e-26 1.97433e-26 3.27234e-26), No Iterations 100
maxResidual = 0.000747547

ExecutionTime = 24.15 s  ClockTime = 25 s

Time = 237

         Steady solver/PNP-NS Iteration      # 1
BiCGStab:  Solving for PNP, Initial residual = (0.000483506 0.000740181 5.92512e-15), Final residual = (3.1578e-27 4.82322e-27 8.04016e-27), No Iterations 111
maxResidual = 0.000740181

ExecutionTime = 24.26 s  ClockTime = 25 s

Time = 238

         Steady solver/PNP-NS Iteration      # 1
BiCGStab:  Solving for PNP, Initial residual = (0.000477239 0.000738544 5.67521e-15), Final residual = (2.94786e-26 4.49928e-26 7.45765e-26), No Iterations 101
maxResidual = 0.000738544

ExecutionTime = 24.36 s  ClockTime = 25 s

Time = 239

         Steady solver/PNP-NS Iteration      # 1
BiCGStab:  Solving for PNP, Initial residual = (0.000477651 0.000731416 5.50945e-15), Final residual = (3.18695e-26 4.86441e-26 8.05715e-26), No Iterations 103
maxResidual = 0.000731416

ExecutionTime = 24.46 s  ClockTime = 25 s

Time = 240

         Steady solver/PNP-NS Iteration      # 1
BiCGStab:  Solving for PNP, Initial residual = (0.000471678 0.000729897 6.52676e-15), Final residual = (2.42544e-26 3.70371e-26 6.16976e-26), No Iterations 101
maxResidual = 0.000729897

ExecutionTime = 24.56 s  ClockTime = 25 s

Time = 241

         Steady solver/PNP-NS Iteration      # 1
BiCGStab:  Solving for PNP, Initial residual = (0.00047203 0.000723001 5.93766e-15), Final residual = (2.33794e-26 3.56347e-26 5.94018e-26), No Iterations 103
maxResidual = 0.000723001

ExecutionTime = 24.66 s  ClockTime = 25 s

Time = 242

         Steady solver/PNP-NS Iteration      # 1
BiCGStab:  Solving for PNP, Initial residual = (0.000466335 0.00072159 6.32372e-15), Final residual = (2.10938e-26 3.21956e-26 5.33498e-26), No Iterations 101
maxResidual = 0.00072159

ExecutionTime = 24.76 s  ClockTime = 25 s

Time = 243

         Steady solver/PNP-NS Iteration      # 1
BiCGStab:  Solving for PNP, Initial residual = (0.000466632 0.000714919 6.00694e-15), Final residual = (3.16753e-26 4.83489e-26 8.00779e-26), No Iterations 105
maxResidual = 0.000714919

ExecutionTime = 24.86 s  ClockTime = 25 s

Time = 244

         Steady solver/PNP-NS Iteration      # 1
BiCGStab:  Solving for PNP, Initial residual = (0.0004612 0.000713606 5.67137e-15), Final residual = (1.35554e-26 2.07203e-26 3.43391e-26), No Iterations 100
maxResidual = 0.000713606

ExecutionTime = 24.96 s  ClockTime = 25 s

Time = 245

         Steady solver/PNP-NS Iteration      # 1
BiCGStab:  Solving for PNP, Initial residual = (0.000461447 0.000707155 5.57474e-15), Final residual = (2.08046e-26 3.17541e-26 5.25946e-26), No Iterations 102
maxResidual = 0.000707155

ExecutionTime = 25.05 s  ClockTime = 25 s

Time = 246

         Steady solver/PNP-NS Iteration      # 1
BiCGStab:  Solving for PNP, Initial residual = (0.000456263 0.00070593 5.72687e-15), Final residual = (2.46682e-26 3.76522e-26 6.24569e-26), No Iterations 103
maxResidual = 0.00070593

ExecutionTime = 25.15 s  ClockTime = 26 s

Time = 247

         Steady solver/PNP-NS Iteration      # 1
BiCGStab:  Solving for PNP, Initial residual = (0.000456463 0.000699692 5.76163e-15), Final residual = (1.74385e-26 2.65962e-26 4.43556e-26), No Iterations 102
maxResidual = 0.000699692

ExecutionTime = 25.25 s  ClockTime = 26 s

Time = 248

         Steady solver/PNP-NS Iteration      # 1
BiCGStab:  Solving for PNP, Initial residual = (0.000451514 0.000698548 6.21947e-15), Final residual = (3.06357e-26 4.67581e-26 7.74656e-26), No Iterations 100
maxResidual = 0.000698548

ExecutionTime = 25.35 s  ClockTime = 26 s

Time = 249

         Steady solver/PNP-NS Iteration      # 1
BiCGStab:  Solving for PNP, Initial residual = (0.000451671 0.000692516 5.58619e-15), Final residual = (1.64254e-26 2.50695e-26 4.15683e-26), No Iterations 102
maxResidual = 0.000692516

ExecutionTime = 25.45 s  ClockTime = 26 s

Time = 250

         Steady solver/PNP-NS Iteration      # 1
BiCGStab:  Solving for PNP, Initial residual = (0.000446945 0.000691446 5.41156e-15), Final residual = (2.20664e-26 3.36798e-26 5.5798e-26), No Iterations 102
maxResidual = 0.000691446

ExecutionTime = 25.56 s  ClockTime = 26 s

Time = 251

         Steady solver/PNP-NS Iteration      # 1
BiCGStab:  Solving for PNP, Initial residual = (0.000447062 0.000685613 5.51878e-15), Final residual = (4.519e-27 6.89735e-27 1.14264e-26), No Iterations 103
maxResidual = 0.000685613

ExecutionTime = 25.66 s  ClockTime = 26 s

Time = 252

         Steady solver/PNP-NS Iteration      # 1
BiCGStab:  Solving for PNP, Initial residual = (0.000442547 0.00068461 5.4019e-15), Final residual = (1.25853e-26 1.92167e-26 3.22753e-26), No Iterations 100
maxResidual = 0.00068461

ExecutionTime = 25.75 s  ClockTime = 26 s

Time = 253

         Steady solver/PNP-NS Iteration      # 1
BiCGStab:  Solving for PNP, Initial residual = (0.000442627 0.000678971 5.28416e-15), Final residual = (1.542e-26 2.35799e-26 3.93717e-26), No Iterations 101
maxResidual = 0.000678971

ExecutionTime = 25.85 s  ClockTime = 26 s

Time = 254

         Steady solver/PNP-NS Iteration      # 1
BiCGStab:  Solving for PNP, Initial residual = (0.000438311 0.000678028 5.4615e-15), Final residual = (3.03953e-26 4.6348e-26 7.68215e-26), No Iterations 102
maxResidual = 0.000678028

ExecutionTime = 25.95 s  ClockTime = 26 s

Time = 255

         Steady solver/PNP-NS Iteration      # 1
BiCGStab:  Solving for PNP, Initial residual = (0.000438358 0.000672576 5.38855e-15), Final residual = (1.63381e-26 2.49402e-26 4.13464e-26), No Iterations 102
maxResidual = 0.000672576

ExecutionTime = 26.05 s  ClockTime = 26 s

Time = 256

         Steady solver/PNP-NS Iteration      # 1
BiCGStab:  Solving for PNP, Initial residual = (0.000434231 0.000671689 5.32778e-15), Final residual = (2.76336e-26 4.17399e-26 7.13921e-26), No Iterations 104
maxResidual = 0.000671689

ExecutionTime = 26.15 s  ClockTime = 27 s

Time = 257

         Steady solver/PNP-NS Iteration      # 1
BiCGStab:  Solving for PNP, Initial residual = (0.000434247 0.000666417 5.2201e-15), Final residual = (2.18975e-26 3.342e-26 5.53459e-26), No Iterations 104
maxResidual = 0.000666417

ExecutionTime = 26.25 s  ClockTime = 27 s

Time = 258

         Steady solver/PNP-NS Iteration      # 1
BiCGStab:  Solving for PNP, Initial residual = (0.000430299 0.000665579 5.5982e-15), Final residual = (2.24129e-26 3.42088e-26 5.66885e-26), No Iterations 101
maxResidual = 0.000665579

ExecutionTime = 26.34 s  ClockTime = 27 s

Time = 259

         Steady solver/PNP-NS Iteration      # 1
BiCGStab:  Solving for PNP, Initial residual = (0.000430286 0.000660483 5.39485e-15), Final residual = (2.48865e-26 3.79774e-26 6.29227e-26), No Iterations 103
maxResidual = 0.000660483

ExecutionTime = 26.44 s  ClockTime = 27 s

Time = 260

         Steady solver/PNP-NS Iteration      # 1
BiCGStab:  Solving for PNP, Initial residual = (0.000426508 0.00065969 5.46982e-15), Final residual = (6.65866e-27 1.0163e-26 1.68294e-26), No Iterations 115
maxResidual = 0.00065969

ExecutionTime = 26.57 s  ClockTime = 27 s

Time = 261

         Steady solver/PNP-NS Iteration      # 1
BiCGStab:  Solving for PNP, Initial residual = (0.000426469 0.000654762 5.4794e-15), Final residual = (1.08759e-26 1.65997e-26 2.75031e-26), No Iterations 105
maxResidual = 0.000654762

ExecutionTime = 26.67 s  ClockTime = 27 s

Time = 262

         Steady solver/PNP-NS Iteration      # 1
BiCGStab:  Solving for PNP, Initial residual = (0.000422851 0.000654011 5.96507e-15), Final residual = (2.6448e-26 4.03673e-26 6.68865e-26), No Iterations 103
maxResidual = 0.000654011

ExecutionTime = 26.77 s  ClockTime = 27 s

Time = 263

         Steady solver/PNP-NS Iteration      # 1
BiCGStab:  Solving for PNP, Initial residual = (0.000422788 0.000649247 5.48328e-15), Final residual = (8.60061e-27 1.31268e-26 2.17748e-26), No Iterations 105
maxResidual = 0.000649247

ExecutionTime = 26.87 s  ClockTime = 27 s

Time = 264

         Steady solver/PNP-NS Iteration      # 1
BiCGStab:  Solving for PNP, Initial residual = (0.000419323 0.000648532 5.51314e-15), Final residual = (1.98449e-26 3.02897e-26 5.0162e-26), No Iterations 103
maxResidual = 0.000648532

ExecutionTime = 26.97 s  ClockTime = 27 s

Time = 265

         Steady solver/PNP-NS Iteration      # 1
BiCGStab:  Solving for PNP, Initial residual = (0.000419238 0.000643925 5.54251e-15), Final residual = (2.73157e-26 4.16921e-26 6.90493e-26), No Iterations 105
maxResidual = 0.000643925

ExecutionTime = 27.07 s  ClockTime = 28 s

Time = 266

         Steady solver/PNP-NS Iteration      # 1
BiCGStab:  Solving for PNP, Initial residual = (0.000415918 0.000643244 5.34342e-15), Final residual = (2.27888e-26 3.47832e-26 5.76058e-26), No Iterations 105
maxResidual = 0.000643244

ExecutionTime = 27.17 s  ClockTime = 28 s

Time = 267

         Steady solver/PNP-NS Iteration      # 1
BiCGStab:  Solving for PNP, Initial residual = (0.000415812 0.00063879 5.32918e-15), Final residual = (1.56838e-26 2.39381e-26 3.96774e-26), No Iterations 104
maxResidual = 0.00063879

ExecutionTime = 27.27 s  ClockTime = 28 s

Time = 268

         Steady solver/PNP-NS Iteration      # 1
BiCGStab:  Solving for PNP, Initial residual = (0.00041263 0.000638139 5.52421e-15), Final residual = (6.27515e-27 9.57989e-27 1.58935e-26), No Iterations 107
maxResidual = 0.000638139

ExecutionTime = 27.38 s  ClockTime = 28 s

Time = 269

         Steady solver/PNP-NS Iteration      # 1
BiCGStab:  Solving for PNP, Initial residual = (0.000412506 0.000633832 5.55546e-15), Final residual = (2.13652e-26 3.26099e-26 5.40226e-26), No Iterations 105
maxResidual = 0.000633832

ExecutionTime = 27.48 s  ClockTime = 28 s

Time = 270

         Steady solver/PNP-NS Iteration      # 1
BiCGStab:  Solving for PNP, Initial residual = (0.000409454 0.000633209 5.83277e-15), Final residual = (6.8138e-27 1.04013e-26 1.72284e-26), No Iterations 107
maxResidual = 0.000633209

ExecutionTime = 27.59 s  ClockTime = 28 s

Time = 271

         Steady solver/PNP-NS Iteration      # 1
BiCGStab:  Solving for PNP, Initial residual = (0.000409312 0.000629044 5.62625e-15), Final residual = (1.63362e-26 2.49321e-26 4.14024e-26), No Iterations 109
maxResidual = 0.000629044

[...]
maxResidual = 0.00013022

ExecutionTime = 193.79 s  ClockTime = 201 s

Time = 1933

         Steady solver/PNP-NS Iteration      # 1
BiCGStab:  Solving for PNP, Initial residual = (8.85174e-05 0.000130096 2.97006e-15), Final residual = (1.54144e-26 2.33367e-26 4.93179e-26), No Iterations 99
maxResidual = 0.000130096

ExecutionTime = 193.89 s  ClockTime = 201 s

Time = 1934

         Steady solver/PNP-NS Iteration      # 1
BiCGStab:  Solving for PNP, Initial residual = (8.8436e-05 0.000129973 2.92591e-15), Final residual = (3.10339e-26 4.73463e-26 8.24299e-26), No Iterations 98
maxResidual = 0.000129973

ExecutionTime = 193.99 s  ClockTime = 201 s

Time = 1935

         Steady solver/PNP-NS Iteration      # 1
BiCGStab:  Solving for PNP, Initial residual = (8.83547e-05 0.000129849 2.93777e-15), Final residual = (1.13285e-26 1.7283e-26 3.0201e-26), No Iterations 98
maxResidual = 0.000129849

ExecutionTime = 194.09 s  ClockTime = 202 s

Time = 1936

         Steady solver/PNP-NS Iteration      # 1
BiCGStab:  Solving for PNP, Initial residual = (8.82735e-05 0.000129726 2.94508e-15), Final residual = (2.85309e-26 4.35332e-26 7.4818e-26), No Iterations 96
maxResidual = 0.000129726

ExecutionTime = 194.19 s  ClockTime = 202 s

Time = 1937

         Steady solver/PNP-NS Iteration      # 1
BiCGStab:  Solving for PNP, Initial residual = (8.81924e-05 0.000129603 2.96057e-15), Final residual = (1.65534e-26 2.52495e-26 4.36627e-26), No Iterations 96
maxResidual = 0.000129603

ExecutionTime = 194.28 s  ClockTime = 202 s

Time = 1938

         Steady solver/PNP-NS Iteration      # 1
BiCGStab:  Solving for PNP, Initial residual = (8.81113e-05 0.00012948 2.90877e-15), Final residual = (2.1325e-26 3.25403e-26 5.55705e-26), No Iterations 97
maxResidual = 0.00012948

ExecutionTime = 194.38 s  ClockTime = 202 s

Time = 1939

         Steady solver/PNP-NS Iteration      # 1
BiCGStab:  Solving for PNP, Initial residual = (8.80303e-05 0.000129357 2.90604e-15), Final residual = (2.21991e-26 3.38682e-26 5.879e-26), No Iterations 97
maxResidual = 0.000129357

ExecutionTime = 194.49 s  ClockTime = 202 s

Time = 1940

         Steady solver/PNP-NS Iteration      # 1
BiCGStab:  Solving for PNP, Initial residual = (8.79494e-05 0.000129235 2.98557e-15), Final residual = (1.88413e-26 2.87498e-26 4.92938e-26), No Iterations 99
maxResidual = 0.000129235

ExecutionTime = 194.59 s  ClockTime = 202 s

Time = 1941

         Steady solver/PNP-NS Iteration      # 1
BiCGStab:  Solving for PNP, Initial residual = (8.78685e-05 0.000129112 3.00572e-15), Final residual = (1.71739e-26 2.62006e-26 4.56717e-26), No Iterations 99
maxResidual = 0.000129112

ExecutionTime = 194.7 s  ClockTime = 202 s

Time = 1942

         Steady solver/PNP-NS Iteration      # 1
BiCGStab:  Solving for PNP, Initial residual = (8.77877e-05 0.00012899 3.10987e-15), Final residual = (1.43303e-26 2.18591e-26 3.84494e-26), No Iterations 97
maxResidual = 0.00012899

ExecutionTime = 194.8 s  ClockTime = 202 s

Time = 1943

         Steady solver/PNP-NS Iteration      # 1
BiCGStab:  Solving for PNP, Initial residual = (8.77069e-05 0.000128867 3.01554e-15), Final residual = (2.54066e-26 3.8758e-26 6.69454e-26), No Iterations 96
maxResidual = 0.000128867

ExecutionTime = 194.9 s  ClockTime = 202 s

Time = 1944

         Steady solver/PNP-NS Iteration      # 1
BiCGStab:  Solving for PNP, Initial residual = (8.76263e-05 0.000128745 2.96636e-15), Final residual = (1.93551e-26 2.95167e-26 5.28069e-26), No Iterations 98
maxResidual = 0.000128745

ExecutionTime = 194.99 s  ClockTime = 202 s

Time = 1945

         Steady solver/PNP-NS Iteration      # 1
BiCGStab:  Solving for PNP, Initial residual = (8.75457e-05 0.000128623 3.08766e-15), Final residual = (3.03049e-26 4.62308e-26 8.00913e-26), No Iterations 95
maxResidual = 0.000128623

ExecutionTime = 195.09 s  ClockTime = 203 s

Time = 1946

         Steady solver/PNP-NS Iteration      # 1
BiCGStab:  Solving for PNP, Initial residual = (8.74651e-05 0.000128501 3.03087e-15), Final residual = (1.43144e-26 2.18451e-26 3.79639e-26), No Iterations 98
maxResidual = 0.000128501

ExecutionTime = 195.19 s  ClockTime = 203 s

Time = 1947

         Steady solver/PNP-NS Iteration      # 1
BiCGStab:  Solving for PNP, Initial residual = (8.73847e-05 0.000128379 2.95337e-15), Final residual = (2.92987e-26 4.48323e-26 8.04518e-26), No Iterations 97
maxResidual = 0.000128379

ExecutionTime = 195.3 s  ClockTime = 203 s

Time = 1948

         Steady solver/PNP-NS Iteration      # 1
BiCGStab:  Solving for PNP, Initial residual = (8.73043e-05 0.000128258 2.97172e-15), Final residual = (1.82958e-26 2.79156e-26 4.81346e-26), No Iterations 98
maxResidual = 0.000128258

ExecutionTime = 195.4 s  ClockTime = 203 s

Time = 1949

         Steady solver/PNP-NS Iteration      # 1
BiCGStab:  Solving for PNP, Initial residual = (8.72239e-05 0.000128136 2.96795e-15), Final residual = (1.29631e-26 1.97667e-26 3.52751e-26), No Iterations 98
maxResidual = 0.000128136

ExecutionTime = 195.5 s  ClockTime = 203 s

Time = 1950

         Steady solver/PNP-NS Iteration      # 1
BiCGStab:  Solving for PNP, Initial residual = (8.71437e-05 0.000128014 3.03678e-15), Final residual = (2.07955e-26 3.17321e-26 5.45157e-26), No Iterations 98
maxResidual = 0.000128014

ExecutionTime = 195.61 s  ClockTime = 203 s

Time = 1951

         Steady solver/PNP-NS Iteration      # 1
BiCGStab:  Solving for PNP, Initial residual = (8.70635e-05 0.000127893 3.16584e-15), Final residual = (2.27544e-26 3.47037e-26 6.05285e-26), No Iterations 98
maxResidual = 0.000127893

ExecutionTime = 195.71 s  ClockTime = 203 s

Time = 1952

         Steady solver/PNP-NS Iteration      # 1
BiCGStab:  Solving for PNP, Initial residual = (8.69833e-05 0.000127772 3.08642e-15), Final residual = (1.71964e-26 2.62302e-26 4.62683e-26), No Iterations 98
maxResidual = 0.000127772

ExecutionTime = 195.81 s  ClockTime = 203 s

Time = 1953

         Steady solver/PNP-NS Iteration      # 1
BiCGStab:  Solving for PNP, Initial residual = (8.69033e-05 0.000127651 3.10554e-15), Final residual = (1.65972e-26 2.52934e-26 4.75223e-26), No Iterations 98
maxResidual = 0.000127651

ExecutionTime = 195.91 s  ClockTime = 203 s

Time = 1954

         Steady solver/PNP-NS Iteration      # 1
BiCGStab:  Solving for PNP, Initial residual = (8.68233e-05 0.00012753 3.14991e-15), Final residual = (1.43704e-26 2.19052e-26 3.98431e-26), No Iterations 98
maxResidual = 0.00012753

ExecutionTime = 196.01 s  ClockTime = 204 s

Time = 1955

         Steady solver/PNP-NS Iteration      # 1
BiCGStab:  Solving for PNP, Initial residual = (8.67434e-05 0.000127409 2.97301e-15), Final residual = (2.36874e-26 3.61384e-26 6.25291e-26), No Iterations 97
maxResidual = 0.000127409

ExecutionTime = 196.11 s  ClockTime = 204 s

Time = 1956

         Steady solver/PNP-NS Iteration      # 1
BiCGStab:  Solving for PNP, Initial residual = (8.66635e-05 0.000127288 3.06775e-15), Final residual = (2.09316e-26 3.19346e-26 5.48023e-26), No Iterations 97
maxResidual = 0.000127288

ExecutionTime = 196.21 s  ClockTime = 204 s

Time = 1957

         Steady solver/PNP-NS Iteration      # 1
BiCGStab:  Solving for PNP, Initial residual = (8.65837e-05 0.000127168 3.14117e-15), Final residual = (2.58156e-26 3.92661e-26 6.75631e-26), No Iterations 99
maxResidual = 0.000127168

ExecutionTime = 196.32 s  ClockTime = 204 s

Time = 1958

         Steady solver/PNP-NS Iteration      # 1
BiCGStab:  Solving for PNP, Initial residual = (8.6504e-05 0.000127047 3.10236e-15), Final residual = (1.49984e-26 2.28769e-26 4.04058e-26), No Iterations 100
maxResidual = 0.000127047

ExecutionTime = 196.41 s  ClockTime = 204 s

Time = 1959

         Steady solver/PNP-NS Iteration      # 1
BiCGStab:  Solving for PNP, Initial residual = (8.64244e-05 0.000126927 3.08064e-15), Final residual = (2.91592e-26 4.44585e-26 8.06122e-26), No Iterations 103
maxResidual = 0.000126927

ExecutionTime = 196.52 s  ClockTime = 204 s

Time = 1960

         Steady solver/PNP-NS Iteration      # 1
BiCGStab:  Solving for PNP, Initial residual = (8.63448e-05 0.000126807 3.03021e-15), Final residual = (6.58726e-27 1.00215e-26 1.87206e-26), No Iterations 99
maxResidual = 0.000126807

ExecutionTime = 196.63 s  ClockTime = 204 s

Time = 1961

         Steady solver/PNP-NS Iteration      # 1
BiCGStab:  Solving for PNP, Initial residual = (8.62653e-05 0.000126687 3.03794e-15), Final residual = (1.53883e-26 2.34764e-26 4.0654e-26), No Iterations 100
maxResidual = 0.000126687

ExecutionTime = 196.73 s  ClockTime = 204 s

Time = 1962

         Steady solver/PNP-NS Iteration      # 1
BiCGStab:  Solving for PNP, Initial residual = (8.61858e-05 0.000126567 3.06948e-15), Final residual = (1.58602e-26 2.41987e-26 4.19345e-26), No Iterations 100
maxResidual = 0.000126567

ExecutionTime = 196.83 s  ClockTime = 204 s

Time = 1963

         Steady solver/PNP-NS Iteration      # 1
BiCGStab:  Solving for PNP, Initial residual = (8.61065e-05 0.000126447 2.9506e-15), Final residual = (1.78422e-26 2.72149e-26 4.80111e-26), No Iterations 98
maxResidual = 0.000126447

ExecutionTime = 196.93 s  ClockTime = 204 s

Time = 1964

         Steady solver/PNP-NS Iteration      # 1
BiCGStab:  Solving for PNP, Initial residual = (8.60272e-05 0.000126327 3.08755e-15), Final residual = (1.70454e-26 2.60041e-26 4.51648e-26), No Iterations 97
maxResidual = 0.000126327

ExecutionTime = 197.04 s  ClockTime = 205 s

Time = 1965

         Steady solver/PNP-NS Iteration      # 1
BiCGStab:  Solving for PNP, Initial residual = (8.59479e-05 0.000126207 2.91914e-15), Final residual = (1.33454e-26 2.03565e-26 3.55353e-26), No Iterations 98
maxResidual = 0.000126207

ExecutionTime = 197.14 s  ClockTime = 205 s

Time = 1966

         Steady solver/PNP-NS Iteration      # 1
BiCGStab:  Solving for PNP, Initial residual = (8.58688e-05 0.000126088 3.01709e-15), Final residual = (2.41814e-26 3.68254e-26 6.57412e-26), No Iterations 97
maxResidual = 0.000126088

ExecutionTime = 197.24 s  ClockTime = 205 s

Time = 1967

         Steady solver/PNP-NS Iteration      # 1
BiCGStab:  Solving for PNP, Initial residual = (8.57897e-05 0.000125968 2.8636e-15), Final residual = (3.05377e-26 4.65967e-26 8.00968e-26), No Iterations 97
maxResidual = 0.000125968

ExecutionTime = 197.34 s  ClockTime = 205 s

Time = 1968

         Steady solver/PNP-NS Iteration      # 1
BiCGStab:  Solving for PNP, Initial residual = (8.57106e-05 0.000125849 2.93518e-15), Final residual = (1.87861e-26 2.8603e-26 5.62246e-26), No Iterations 100
maxResidual = 0.000125849

ExecutionTime = 197.44 s  ClockTime = 205 s

Time = 1969

         Steady solver/PNP-NS Iteration      # 1
BiCGStab:  Solving for PNP, Initial residual = (8.56317e-05 0.00012573 2.94122e-15), Final residual = (1.16028e-26 1.77035e-26 3.06401e-26), No Iterations 98
maxResidual = 0.00012573

ExecutionTime = 197.54 s  ClockTime = 205 s

Time = 1970

         Steady solver/PNP-NS Iteration      # 1
BiCGStab:  Solving for PNP, Initial residual = (8.55528e-05 0.000125611 3.10576e-15), Final residual = (1.19855e-26 1.82735e-26 3.32558e-26), No Iterations 97
maxResidual = 0.000125611

ExecutionTime = 197.65 s  ClockTime = 205 s

Time = 1971

         Steady solver/PNP-NS Iteration      # 1
BiCGStab:  Solving for PNP, Initial residual = (8.54739e-05 0.000125492 3.04988e-15), Final residual = (2.01151e-26 3.07185e-26 5.3134e-26), No Iterations 96
maxResidual = 0.000125492

ExecutionTime = 197.75 s  ClockTime = 205 s

Time = 1972

         Steady solver/PNP-NS Iteration      # 1
BiCGStab:  Solving for PNP, Initial residual = (8.53952e-05 0.000125373 3.01077e-15), Final residual = (3.00365e-26 4.57988e-26 8.04634e-26), No Iterations 97
maxResidual = 0.000125373

ExecutionTime = 197.85 s  ClockTime = 205 s

Time = 1973

         Steady solver/PNP-NS Iteration      # 1
BiCGStab:  Solving for PNP, Initial residual = (8.53165e-05 0.000125255 2.96773e-15), Final residual = (1.92807e-26 2.94176e-26 5.08062e-26), No Iterations 97
maxResidual = 0.000125255

ExecutionTime = 197.95 s  ClockTime = 206 s

Time = 1974

         Steady solver/PNP-NS Iteration      # 1
BiCGStab:  Solving for PNP, Initial residual = (8.52379e-05 0.000125136 3.20007e-15), Final residual = (2.9056e-26 4.43229e-26 7.77339e-26), No Iterations 97
maxResidual = 0.000125136

ExecutionTime = 198.05 s  ClockTime = 206 s

Time = 1975

         Steady solver/PNP-NS Iteration      # 1
BiCGStab:  Solving for PNP, Initial residual = (8.51594e-05 0.000125018 3.2736e-15), Final residual = (2.37023e-26 3.61238e-26 6.4525e-26), No Iterations 97
maxResidual = 0.000125018

ExecutionTime = 198.15 s  ClockTime = 206 s

Time = 1976

         Steady solver/PNP-NS Iteration      # 1
BiCGStab:  Solving for PNP, Initial residual = (8.50809e-05 0.0001249 3.01815e-15), Final residual = (2.69719e-26 4.12648e-26 7.62359e-26), No Iterations 97
maxResidual = 0.0001249

ExecutionTime = 198.25 s  ClockTime = 206 s

Time = 1977

         Steady solver/PNP-NS Iteration      # 1
BiCGStab:  Solving for PNP, Initial residual = (8.50025e-05 0.000124781 2.94674e-15), Final residual = (1.80375e-26 2.7515e-26 4.86277e-26), No Iterations 98
maxResidual = 0.000124781

ExecutionTime = 198.34 s  ClockTime = 206 s

Time = 1978

         Steady solver/PNP-NS Iteration      # 1
BiCGStab:  Solving for PNP, Initial residual = (8.49241e-05 0.000124663 2.98147e-15), Final residual = (3.02817e-26 4.61638e-26 8.26958e-26), No Iterations 97
maxResidual = 0.000124663

ExecutionTime = 198.45 s  ClockTime = 206 s

Time = 1979

         Steady solver/PNP-NS Iteration      # 1
BiCGStab:  Solving for PNP, Initial residual = (8.48459e-05 0.000124546 2.94322e-15), Final residual = (2.24056e-26 3.4186e-26 5.91267e-26), No Iterations 96
maxResidual = 0.000124546

ExecutionTime = 198.55 s  ClockTime = 206 s

Time = 1980

         Steady solver/PNP-NS Iteration      # 1
BiCGStab:  Solving for PNP, Initial residual = (8.47677e-05 0.000124428 2.97341e-15), Final residual = (2.65151e-26 4.04559e-26 6.97222e-26), No Iterations 96
maxResidual = 0.000124428

ExecutionTime = 198.66 s  ClockTime = 206 s

Time = 1981

         Steady solver/PNP-NS Iteration      # 1
BiCGStab:  Solving for PNP, Initial residual = (8.46895e-05 0.00012431 3.04517e-15), Final residual = (2.54721e-26 3.886e-26 6.77184e-26), No Iterations 97
maxResidual = 0.00012431

ExecutionTime = 198.77 s  ClockTime = 206 s

Time = 1982

         Steady solver/PNP-NS Iteration      # 1
BiCGStab:  Solving for PNP, Initial residual = (8.46115e-05 0.000124193 2.92404e-15), Final residual = (2.50852e-26 3.81412e-26 6.77621e-26), No Iterations 96
maxResidual = 0.000124193

ExecutionTime = 198.87 s  ClockTime = 207 s

Time = 1983

         Steady solver/PNP-NS Iteration      # 1
BiCGStab:  Solving for PNP, Initial residual = (8.45335e-05 0.000124075 2.9262e-15), Final residual = (2.17302e-26 3.31542e-26 5.70306e-26), No Iterations 97
maxResidual = 0.000124075

ExecutionTime = 198.97 s  ClockTime = 207 s

Time = 1984

         Steady solver/PNP-NS Iteration      # 1
BiCGStab:  Solving for PNP, Initial residual = (8.44556e-05 0.000123958 2.93229e-15), Final residual = (2.10339e-26 3.20786e-26 5.70043e-26), No Iterations 97
maxResidual = 0.000123958

ExecutionTime = 199.07 s  ClockTime = 207 s

Time = 1985

         Steady solver/PNP-NS Iteration      # 1
BiCGStab:  Solving for PNP, Initial residual = (8.43777e-05 0.000123841 2.91077e-15), Final residual = (2.33567e-26 3.56377e-26 6.23606e-26), No Iterations 96
maxResidual = 0.000123841

ExecutionTime = 199.17 s  ClockTime = 207 s

Time = 1986

         Steady solver/PNP-NS Iteration      # 1
BiCGStab:  Solving for PNP, Initial residual = (8.42999e-05 0.000123724 2.96506e-15), Final residual = (1.25639e-26 1.91759e-26 3.32269e-26), No Iterations 96
maxResidual = 0.000123724

ExecutionTime = 199.26 s  ClockTime = 207 s

Time = 1987

         Steady solver/PNP-NS Iteration      # 1
BiCGStab:  Solving for PNP, Initial residual = (8.42222e-05 0.000123607 2.9678e-15), Final residual = (2.83006e-26 4.313e-26 7.49096e-26), No Iterations 96
maxResidual = 0.000123607

ExecutionTime = 199.36 s  ClockTime = 207 s

Time = 1988

         Steady solver/PNP-NS Iteration      # 1
BiCGStab:  Solving for PNP, Initial residual = (8.41446e-05 0.00012349 2.8554e-15), Final residual = (1.24319e-26 1.89681e-26 3.27387e-26), No Iterations 96
maxResidual = 0.00012349

ExecutionTime = 199.46 s  ClockTime = 207 s

Time = 1989

         Steady solver/PNP-NS Iteration      # 1
BiCGStab:  Solving for PNP, Initial residual = (8.4067e-05 0.000123373 2.91473e-15), Final residual = (3.03855e-26 4.63564e-26 8.04298e-26), No Iterations 96
maxResidual = 0.000123373

ExecutionTime = 199.55 s  ClockTime = 207 s

Time = 1990

         Steady solver/PNP-NS Iteration      # 1
BiCGStab:  Solving for PNP, Initial residual = (8.39895e-05 0.000123257 2.93589e-15), Final residual = (1.42465e-26 2.17406e-26 3.74518e-26), No Iterations 96
maxResidual = 0.000123257

ExecutionTime = 199.66 s  ClockTime = 207 s

Time = 1991

         Steady solver/PNP-NS Iteration      # 1
BiCGStab:  Solving for PNP, Initial residual = (8.39121e-05 0.00012314 3.01225e-15), Final residual = (2.79185e-26 4.25901e-26 7.4401e-26), No Iterations 95
maxResidual = 0.00012314

ExecutionTime = 199.77 s  ClockTime = 207 s

Time = 1992

         Steady solver/PNP-NS Iteration      # 1
BiCGStab:  Solving for PNP, Initial residual = (8.38347e-05 0.000123024 2.94283e-15), Final residual = (1.59082e-26 2.42496e-26 4.46541e-26), No Iterations 97
maxResidual = 0.000123024

ExecutionTime = 199.87 s  ClockTime = 208 s

Time = 1993

         Steady solver/PNP-NS Iteration      # 1
BiCGStab:  Solving for PNP, Initial residual = (8.37574e-05 0.000122908 2.90052e-15), Final residual = (2.53369e-26 3.86063e-26 7.06793e-26), No Iterations 97
maxResidual = 0.000122908

ExecutionTime = 199.97 s  ClockTime = 208 s

Time = 1994

         Steady solver/PNP-NS Iteration      # 1
BiCGStab:  Solving for PNP, Initial residual = (8.36802e-05 0.000122792 3.02456e-15), Final residual = (1.55768e-26 2.37562e-26 4.22637e-26), No Iterations 97
maxResidual = 0.000122792

ExecutionTime = 200.07 s  ClockTime = 208 s

Time = 1995

         Steady solver/PNP-NS Iteration      # 1
BiCGStab:  Solving for PNP, Initial residual = (8.3603e-05 0.000122676 3.14707e-15), Final residual = (2.6561e-26 4.04754e-26 7.63034e-26), No Iterations 97
maxResidual = 0.000122676

ExecutionTime = 200.17 s  ClockTime = 208 s

Time = 1996

         Steady solver/PNP-NS Iteration      # 1
BiCGStab:  Solving for PNP, Initial residual = (8.3526e-05 0.00012256 3.21653e-15), Final residual = (1.3209e-26 2.01514e-26 3.5204e-26), No Iterations 97
maxResidual = 0.00012256

ExecutionTime = 200.27 s  ClockTime = 208 s

Time = 1997

         Steady solver/PNP-NS Iteration      # 1
BiCGStab:  Solving for PNP, Initial residual = (8.34489e-05 0.000122444 3.26618e-15), Final residual = (1.53e-26 2.33066e-26 4.51239e-26), No Iterations 96
maxResidual = 0.000122444

ExecutionTime = 200.37 s  ClockTime = 208 s

Time = 1998

         Steady solver/PNP-NS Iteration      # 1
BiCGStab:  Solving for PNP, Initial residual = (8.3372e-05 0.000122329 3.20905e-15), Final residual = (2.22919e-26 3.39981e-26 5.988e-26), No Iterations 95
maxResidual = 0.000122329

ExecutionTime = 200.47 s  ClockTime = 208 s

Time = 1999

         Steady solver/PNP-NS Iteration      # 1
BiCGStab:  Solving for PNP, Initial residual = (8.32951e-05 0.000122213 3.3093e-15), Final residual = (2.54987e-26 3.87673e-26 7.37482e-26), No Iterations 94
maxResidual = 0.000122213

ExecutionTime = 200.56 s  ClockTime = 208 s

Time = 2000

         Steady solver/PNP-NS Iteration      # 1
BiCGStab:  Solving for PNP, Initial residual = (8.32183e-05 0.000122098 3.20733e-15), Final residual = (1.92042e-26 2.92954e-26 5.1349e-26), No Iterations 96
maxResidual = 0.000122098

ExecutionTime = 200.67 s  ClockTime = 208 s

End

