/*---------------------------------------------------------------------------*\
| =========                 |                                                 |
| \\      /  F ield         | foam-extend: Open Source CFD                    |
|  \\    /   O peration     | Version:     4.0                                |
|   \\  /    A nd           | Web:         http://www.foam-extend.org         |
|    \\/     M anipulation  | For copyright notice see file Copyright         |
\*---------------------------------------------------------------------------*/
Build    : 4.0-268bb07d15d8
Exec     : PNPnonDFoam_backUp
Date     : Mar 14 2024
Time     : 13:16:00
Host     : sh-Precision-7920-Tower
PID      : 12674
CtrlDict : "/media/sh/drive1/NextFoam/tutorials/Coupled/2D_example_steady_PNPnonD_backUp/system/controlDict"
Case     : /media/sh/drive1/NextFoam/tutorials/Coupled/2D_example_steady_PNPnonD_backUp
nProcs   : 1
SigFpe   : Enabling floating point exception trapping (FOAM_SIGFPE).

// * * * * * * * * * * * * * * * * * * * * * * * * * * * * * * * * * * * * * //
Create time

--> FOAM Warning : 
    From function dlLibraryTable::open(const fileName& functionLibName)
    in file db/dlLibraryTable/dlLibraryTable.C at line 124
    could not load libslipEOF.so: cannot open shared object file: No such file or directory
Create mesh for time = 0

Reading field psiE

Reading field psiI

Reading field cPlus

Reading field cMinus

Reading transportProperties

****************************************************************

Scale Parameters
****************************************************************
Average-diffusivity's value: 3.36e-09 [0 2 -1 0 0 0 0]
Time-scale's value: 0.0297619 [0 0 1 0 0 0 0]
Potential-scale's value: 0.025852 [1 2 -3 0 0 -1 0]
Velocity-scale's value: 4.73398e-05 [0 1 -1 0 0 0 0]
pressure-scale's value: 4.73398e-06 [0 2 -2 0 0 0 0]
Debye-Length's value: 9.74139e-09 [0 1 0 0 0 0 0]
Dimensionless diffusion coefficient DPlus_nonD: 0.395833
Dimensionless diffusion coefficient DMinus_nonD: 0.604167
Dimensionless Debye-Length: 0.000974139
Schmidt Number: 297.619
Reynold Number: 0.000473398
Pelec Number: 0.140892
****************************************************************
Reading field psiEGrad

Reading field phiE

Reading field DPlusphiE

Reading field DMinusphiE

Reading field phiDcPlus

Reading field phiDcMinus

Reading field netCharge

Creating field PNP


Starting time loop


-------------- | psiE = 25 |--------------

Starting time loop

Time = 1

         Steady solver/PNP-NS Iteration      # 1
BiCGStab:  Solving for PNP, Initial residual = (0.450596 0.687752 0.569174), Final residual = (2.64805e-26 4.04216e-26 6.69003e-26), No Iterations 109
maxResidual = 0.687752

ExecutionTime = 0.21 s  ClockTime = 0 s

Time = 2

         Steady solver/PNP-NS Iteration      # 1
BiCGStab:  Solving for PNP, Initial residual = (0.0223042 0.0342481 4.38718e-15), Final residual = (2.50011e-26 3.81956e-26 6.31242e-26), No Iterations 108
maxResidual = 0.0342481

ExecutionTime = 0.3 s  ClockTime = 1 s

Time = 3

         Steady solver/PNP-NS Iteration      # 1
BiCGStab:  Solving for PNP, Initial residual = (0.255634 0.388977 4.38665e-14), Final residual = (1.36846e-26 2.08894e-26 3.45746e-26), No Iterations 114
maxResidual = 0.388977

ExecutionTime = 0.42 s  ClockTime = 1 s

Time = 4

         Steady solver/PNP-NS Iteration      # 1
BiCGStab:  Solving for PNP, Initial residual = (0.0217986 0.0336148 4.49278e-15), Final residual = (1.25029e-26 1.91076e-26 3.16061e-26), No Iterations 111
maxResidual = 0.0336148

ExecutionTime = 0.52 s  ClockTime = 1 s

Time = 5

         Steady solver/PNP-NS Iteration      # 1
BiCGStab:  Solving for PNP, Initial residual = (0.219745 0.335608 3.90433e-14), Final residual = (2.77277e-26 4.23336e-26 7.00673e-26), No Iterations 111
maxResidual = 0.335608

ExecutionTime = 0.63 s  ClockTime = 1 s

Time = 6

         Steady solver/PNP-NS Iteration      # 1
BiCGStab:  Solving for PNP, Initial residual = (0.0214262 0.0330881 4.38479e-15), Final residual = (2.85693e-26 4.34633e-26 7.19448e-26), No Iterations 111
maxResidual = 0.0330881

ExecutionTime = 0.74 s  ClockTime = 1 s

Time = 7

         Steady solver/PNP-NS Iteration      # 1
BiCGStab:  Solving for PNP, Initial residual = (0.195493 0.298755 3.27943e-14), Final residual = (6.08343e-27 9.28749e-27 1.53812e-26), No Iterations 108
maxResidual = 0.298755

ExecutionTime = 0.84 s  ClockTime = 1 s

Time = 8

         Steady solver/PNP-NS Iteration      # 1
BiCGStab:  Solving for PNP, Initial residual = (0.0211012 0.0326097 4.46427e-15), Final residual = (2.24532e-26 3.42858e-26 5.68034e-26), No Iterations 110
maxResidual = 0.0326097

ExecutionTime = 0.94 s  ClockTime = 1 s

Time = 9

         Steady solver/PNP-NS Iteration      # 1
BiCGStab:  Solving for PNP, Initial residual = (0.177131 0.270679 3.11527e-14), Final residual = (1.09472e-26 1.67131e-26 2.76715e-26), No Iterations 115
maxResidual = 0.270679

ExecutionTime = 1.05 s  ClockTime = 1 s

Time = 10

         Steady solver/PNP-NS Iteration      # 1
BiCGStab:  Solving for PNP, Initial residual = (0.0208018 0.0321625 4.46594e-15), Final residual = (1.0454e-26 1.59567e-26 2.6418e-26), No Iterations 107
maxResidual = 0.0321625

ExecutionTime = 1.16 s  ClockTime = 1 s

Time = 11

         Steady solver/PNP-NS Iteration      # 1
BiCGStab:  Solving for PNP, Initial residual = (0.162422 0.248125 3.1073e-14), Final residual = (1.61721e-26 2.46893e-26 4.08981e-26), No Iterations 115
maxResidual = 0.248125

ExecutionTime = 1.26 s  ClockTime = 1 s

Time = 12

         Steady solver/PNP-NS Iteration      # 1
BiCGStab:  Solving for PNP, Initial residual = (0.0205198 0.0317379 4.68773e-15), Final residual = (1.24576e-26 1.90145e-26 3.14829e-26), No Iterations 108
maxResidual = 0.0317379

ExecutionTime = 1.36 s  ClockTime = 2 s

Time = 13

         Steady solver/PNP-NS Iteration      # 1
BiCGStab:  Solving for PNP, Initial residual = (0.150221 0.229392 2.78268e-14), Final residual = (2.35439e-26 3.59454e-26 5.96495e-26), No Iterations 113
maxResidual = 0.229392

ExecutionTime = 1.47 s  ClockTime = 2 s

Time = 14

         Steady solver/PNP-NS Iteration      # 1
BiCGStab:  Solving for PNP, Initial residual = (0.0202506 0.0313309 6.62592e-15), Final residual = (2.57653e-26 3.93274e-26 6.49526e-26), No Iterations 110
maxResidual = 0.0313309

ExecutionTime = 1.57 s  ClockTime = 2 s

Time = 15

         Steady solver/PNP-NS Iteration      # 1
BiCGStab:  Solving for PNP, Initial residual = (0.139857 0.213465 2.70108e-14), Final residual = (1.78209e-26 2.72078e-26 4.50681e-26), No Iterations 109
maxResidual = 0.213465

ExecutionTime = 1.68 s  ClockTime = 2 s

Time = 16

         Steady solver/PNP-NS Iteration      # 1
BiCGStab:  Solving for PNP, Initial residual = (0.0199918 0.0309383 5.02724e-15), Final residual = (1.13364e-26 1.72445e-26 2.87547e-26), No Iterations 109
maxResidual = 0.0309383

ExecutionTime = 1.78 s  ClockTime = 2 s

Time = 17

         Steady solver/PNP-NS Iteration      # 1
BiCGStab:  Solving for PNP, Initial residual = (0.130896 0.19969 2.56181e-14), Final residual = (1.61904e-26 2.47169e-26 4.09463e-26), No Iterations 108
maxResidual = 0.19969

ExecutionTime = 1.9 s  ClockTime = 2 s

Time = 18

         Steady solver/PNP-NS Iteration      # 1
BiCGStab:  Solving for PNP, Initial residual = (0.0197421 0.0305579 4.67075e-15), Final residual = (9.65684e-27 1.47453e-26 2.45291e-26), No Iterations 110
maxResidual = 0.0305579

ExecutionTime = 2 s  ClockTime = 2 s

Time = 19

         Steady solver/PNP-NS Iteration      # 1
BiCGStab:  Solving for PNP, Initial residual = (0.123134 0.187616 2.58064e-14), Final residual = (1.85288e-26 2.82835e-26 4.68408e-26), No Iterations 109
maxResidual = 0.187616

ExecutionTime = 2.11 s  ClockTime = 2 s

Time = 20

         Steady solver/PNP-NS Iteration      # 1
BiCGStab:  Solving for PNP, Initial residual = (0.0195002 0.0301888 4.75201e-15), Final residual = (8.65144e-27 1.32008e-26 2.19579e-26), No Iterations 109
maxResidual = 0.0301888

ExecutionTime = 2.23 s  ClockTime = 2 s

Time = 21

         Steady solver/PNP-NS Iteration      # 1
BiCGStab:  Solving for PNP, Initial residual = (0.116247 0.176915 2.41581e-14), Final residual = (2.27405e-26 3.47126e-26 5.74951e-26), No Iterations 109
maxResidual = 0.176915

ExecutionTime = 2.34 s  ClockTime = 3 s

Time = 22

         Steady solver/PNP-NS Iteration      # 1
BiCGStab:  Solving for PNP, Initial residual = (0.0192651 0.0298297 4.73919e-15), Final residual = (1.93395e-26 2.95202e-26 4.89096e-26), No Iterations 106
maxResidual = 0.0298297

ExecutionTime = 2.45 s  ClockTime = 3 s

Time = 23

         Steady solver/PNP-NS Iteration      # 1
BiCGStab:  Solving for PNP, Initial residual = (0.110083 0.167346 2.30578e-14), Final residual = (2.94428e-26 4.49424e-26 7.44286e-26), No Iterations 108
maxResidual = 0.167346

ExecutionTime = 2.55 s  ClockTime = 3 s

Time = 24

         Steady solver/PNP-NS Iteration      # 1
BiCGStab:  Solving for PNP, Initial residual = (0.019036 0.0294794 4.93931e-15), Final residual = (2.7977e-26 4.27039e-26 7.07403e-26), No Iterations 111
maxResidual = 0.0294794

ExecutionTime = 2.66 s  ClockTime = 3 s

Time = 25

         Steady solver/PNP-NS Iteration      # 1
BiCGStab:  Solving for PNP, Initial residual = (0.104522 0.158722 2.33929e-14), Final residual = (1.04018e-26 1.5879e-26 2.63019e-26), No Iterations 113
maxResidual = 0.158722

ExecutionTime = 2.77 s  ClockTime = 3 s

Time = 26

         Steady solver/PNP-NS Iteration      # 1
BiCGStab:  Solving for PNP, Initial residual = (0.0188121 0.0291369 4.92278e-15), Final residual = (1.04965e-26 1.60212e-26 2.6535e-26), No Iterations 115
maxResidual = 0.0291369

ExecutionTime = 2.87 s  ClockTime = 3 s

Time = 27

         Steady solver/PNP-NS Iteration      # 1
BiCGStab:  Solving for PNP, Initial residual = (0.0994743 0.150899 2.31505e-14), Final residual = (2.86325e-26 4.37069e-26 7.23911e-26), No Iterations 109
maxResidual = 0.150899

ExecutionTime = 2.98 s  ClockTime = 3 s

Time = 28

         Steady solver/PNP-NS Iteration      # 1
BiCGStab:  Solving for PNP, Initial residual = (0.0185931 0.0288015 4.97065e-15), Final residual = (7.12045e-27 1.09509e-26 1.98062e-26), No Iterations 108
maxResidual = 0.0288015

ExecutionTime = 3.08 s  ClockTime = 3 s

Time = 29

         Steady solver/PNP-NS Iteration      # 1
BiCGStab:  Solving for PNP, Initial residual = (0.0948653 0.143763 2.3355e-14), Final residual = (2.30943e-26 3.52522e-26 5.83831e-26), No Iterations 115
maxResidual = 0.143763

ExecutionTime = 3.19 s  ClockTime = 3 s

Time = 30

         Steady solver/PNP-NS Iteration      # 1
BiCGStab:  Solving for PNP, Initial residual = (0.0183785 0.0284727 5.14611e-15), Final residual = (2.412e-26 3.68023e-26 6.11219e-26), No Iterations 111
maxResidual = 0.0284727

ExecutionTime = 3.3 s  ClockTime = 4 s

Time = 31

         Steady solver/PNP-NS Iteration      # 1
BiCGStab:  Solving for PNP, Initial residual = (0.0906363 0.13722 2.26998e-14), Final residual = (6.6712e-27 1.01838e-26 1.68774e-26), No Iterations 114
maxResidual = 0.13722

ExecutionTime = 3.42 s  ClockTime = 4 s

Time = 32

         Steady solver/PNP-NS Iteration      # 1
BiCGStab:  Solving for PNP, Initial residual = (0.0181679 0.0281499 5.43191e-15), Final residual = (3.0874e-26 4.72262e-26 7.8161e-26), No Iterations 107
maxResidual = 0.0281499

ExecutionTime = 3.52 s  ClockTime = 4 s

Time = 33

         Steady solver/PNP-NS Iteration      # 1
BiCGStab:  Solving for PNP, Initial residual = (0.0867389 0.131196 2.24437e-14), Final residual = (2.60762e-26 3.98061e-26 6.60129e-26), No Iterations 115
maxResidual = 0.131196

ExecutionTime = 3.63 s  ClockTime = 4 s

Time = 34

         Steady solver/PNP-NS Iteration      # 1
BiCGStab:  Solving for PNP, Initial residual = (0.0179611 0.0278328 6.8129e-15), Final residual = (2.02062e-26 3.08434e-26 5.14109e-26), No Iterations 110
maxResidual = 0.0278328

ExecutionTime = 3.73 s  ClockTime = 4 s

Time = 35

         Steady solver/PNP-NS Iteration      # 1
BiCGStab:  Solving for PNP, Initial residual = (0.0831331 0.125626 2.23057e-14), Final residual = (1.77533e-26 2.70921e-26 4.49142e-26), No Iterations 111
maxResidual = 0.125626

ExecutionTime = 3.84 s  ClockTime = 4 s

Time = 36

         Steady solver/PNP-NS Iteration      # 1
BiCGStab:  Solving for PNP, Initial residual = (0.0177578 0.0275209 5.46806e-15), Final residual = (2.19604e-26 3.34818e-26 5.55294e-26), No Iterations 107
maxResidual = 0.0275209

ExecutionTime = 3.94 s  ClockTime = 4 s

Time = 37

         Steady solver/PNP-NS Iteration      # 1
BiCGStab:  Solving for PNP, Initial residual = (0.0797853 0.120459 2.25435e-14), Final residual = (6.35516e-27 9.70986e-27 1.60966e-26), No Iterations 112
maxResidual = 0.120459

ExecutionTime = 4.06 s  ClockTime = 4 s

Time = 38

         Steady solver/PNP-NS Iteration      # 1
BiCGStab:  Solving for PNP, Initial residual = (0.0175578 0.0272141 5.58088e-15), Final residual = (2.422e-26 3.69607e-26 6.12402e-26), No Iterations 110
maxResidual = 0.0272141

ExecutionTime = 4.16 s  ClockTime = 4 s

Time = 39

         Steady solver/PNP-NS Iteration      # 1
BiCGStab:  Solving for PNP, Initial residual = (0.0766671 0.11565 2.0845e-14), Final residual = (2.81388e-26 4.29534e-26 7.12602e-26), No Iterations 114
maxResidual = 0.11565

ExecutionTime = 4.26 s  ClockTime = 5 s

Time = 40

         Steady solver/PNP-NS Iteration      # 1
BiCGStab:  Solving for PNP, Initial residual = (0.0173609 0.0269119 5.38605e-15), Final residual = (1.95363e-26 2.99786e-26 4.96416e-26), No Iterations 110
maxResidual = 0.0269119

ExecutionTime = 4.38 s  ClockTime = 5 s

Time = 41

         Steady solver/PNP-NS Iteration      # 1
BiCGStab:  Solving for PNP, Initial residual = (0.0737545 0.111162 2.10096e-14), Final residual = (1.64689e-26 2.52024e-26 5.20709e-26), No Iterations 115
maxResidual = 0.111162

ExecutionTime = 4.48 s  ClockTime = 5 s

Time = 42

         Steady solver/PNP-NS Iteration      # 1
BiCGStab:  Solving for PNP, Initial residual = (0.017167 0.0266141 5.56968e-15), Final residual = (2.61346e-26 3.98661e-26 6.60366e-26), No Iterations 116
maxResidual = 0.0266141

ExecutionTime = 4.59 s  ClockTime = 5 s

Time = 43

         Steady solver/PNP-NS Iteration      # 1
BiCGStab:  Solving for PNP, Initial residual = (0.0710268 0.106961 2.09295e-14), Final residual = (1.40188e-26 2.13797e-26 3.5393e-26), No Iterations 109
maxResidual = 0.106961

ExecutionTime = 4.69 s  ClockTime = 5 s

Time = 44

         Steady solver/PNP-NS Iteration      # 1
BiCGStab:  Solving for PNP, Initial residual = (0.0169758 0.0263205 5.97086e-15), Final residual = (2.33896e-26 3.57032e-26 5.91446e-26), No Iterations 110
maxResidual = 0.0263205

ExecutionTime = 4.8 s  ClockTime = 5 s

Time = 45

         Steady solver/PNP-NS Iteration      # 1
BiCGStab:  Solving for PNP, Initial residual = (0.0684659 0.103021 2.13736e-14), Final residual = (6.57461e-27 1.00365e-26 1.6622e-26), No Iterations 111
maxResidual = 0.103021

ExecutionTime = 4.91 s  ClockTime = 5 s

Time = 46

         Steady solver/PNP-NS Iteration      # 1
BiCGStab:  Solving for PNP, Initial residual = (0.0167874 0.026031 5.90267e-15), Final residual = (2.91809e-26 4.41995e-26 7.36173e-26), No Iterations 109
maxResidual = 0.026031

ExecutionTime = 5.02 s  ClockTime = 5 s

Time = 47

         Steady solver/PNP-NS Iteration      # 1
BiCGStab:  Solving for PNP, Initial residual = (0.0660561 0.0993154 2.12248e-14), Final residual = (2.50891e-26 3.8298e-26 6.35862e-26), No Iterations 114
maxResidual = 0.0993154

ExecutionTime = 5.12 s  ClockTime = 5 s

Time = 48

         Steady solver/PNP-NS Iteration      # 1
BiCGStab:  Solving for PNP, Initial residual = (0.0166015 0.0257452 6.04691e-15), Final residual = (2.91944e-26 4.45835e-26 7.44029e-26), No Iterations 113
maxResidual = 0.0257452

ExecutionTime = 5.22 s  ClockTime = 6 s

Time = 49

         Steady solver/PNP-NS Iteration      # 1
BiCGStab:  Solving for PNP, Initial residual = (0.0637836 0.095824 2.13286e-14), Final residual = (1.37036e-26 2.09233e-26 3.46977e-26), No Iterations 111
maxResidual = 0.095824

ExecutionTime = 5.33 s  ClockTime = 6 s

Time = 50

         Steady solver/PNP-NS Iteration      # 1
BiCGStab:  Solving for PNP, Initial residual = (0.0164176 0.025462 5.89986e-15), Final residual = (3.01989e-26 4.60462e-26 8.01576e-26), No Iterations 114
maxResidual = 0.025462

ExecutionTime = 5.44 s  ClockTime = 6 s

Time = 51

         Steady solver/PNP-NS Iteration      # 1
BiCGStab:  Solving for PNP, Initial residual = (0.0616293 0.0925177 2.01984e-14), Final residual = (2.99345e-26 4.56926e-26 7.56525e-26), No Iterations 116
maxResidual = 0.0925177

ExecutionTime = 5.55 s  ClockTime = 6 s

Time = 52

         Steady solver/PNP-NS Iteration      # 1
BiCGStab:  Solving for PNP, Initial residual = (0.0162354 0.0251808 5.94183e-15), Final residual = (2.84402e-26 4.34162e-26 7.18664e-26), No Iterations 113
maxResidual = 0.0251808

ExecutionTime = 5.66 s  ClockTime = 6 s

Time = 53

         Steady solver/PNP-NS Iteration      # 1
BiCGStab:  Solving for PNP, Initial residual = (0.0595812 0.0893745 1.95052e-14), Final residual = (1.08748e-26 1.66013e-26 2.75464e-26), No Iterations 112
maxResidual = 0.0893745

ExecutionTime = 5.77 s  ClockTime = 6 s

Time = 54

         Steady solver/PNP-NS Iteration      # 1
BiCGStab:  Solving for PNP, Initial residual = (0.0160549 0.0249019 6.30695e-15), Final residual = (2.36638e-26 3.62777e-26 6.10624e-26), No Iterations 108
maxResidual = 0.0249019

ExecutionTime = 5.87 s  ClockTime = 6 s

Time = 55

         Steady solver/PNP-NS Iteration      # 1
BiCGStab:  Solving for PNP, Initial residual = (0.0576338 0.0863833 1.87557e-14), Final residual = (2.17595e-26 3.32305e-26 5.49979e-26), No Iterations 110
maxResidual = 0.0863833

ExecutionTime = 5.97 s  ClockTime = 6 s

Time = 56

         Steady solver/PNP-NS Iteration      # 1
BiCGStab:  Solving for PNP, Initial residual = (0.0158758 0.0246253 6.15315e-15), Final residual = (1.91742e-26 2.92637e-26 4.87134e-26), No Iterations 108
maxResidual = 0.0246253

ExecutionTime = 6.08 s  ClockTime = 6 s

Time = 57

         Steady solver/PNP-NS Iteration      # 1
BiCGStab:  Solving for PNP, Initial residual = (0.055777 0.0835341 1.87586e-14), Final residual = (1.52419e-26 2.34289e-26 3.88028e-26), No Iterations 110
maxResidual = 0.0835341

ExecutionTime = 6.18 s  ClockTime = 6 s

Time = 58

         Steady solver/PNP-NS Iteration      # 1
BiCGStab:  Solving for PNP, Initial residual = (0.0156983 0.024351 6.28117e-15), Final residual = (1.76592e-26 2.69064e-26 4.46901e-26), No Iterations 109
maxResidual = 0.024351

ExecutionTime = 6.28 s  ClockTime = 7 s

Time = 59

         Steady solver/PNP-NS Iteration      # 1
BiCGStab:  Solving for PNP, Initial residual = (0.054005 0.0808177 1.92464e-14), Final residual = (8.00317e-27 1.22163e-26 2.02608e-26), No Iterations 116
maxResidual = 0.0808177

ExecutionTime = 6.39 s  ClockTime = 7 s

Time = 60

         Steady solver/PNP-NS Iteration      # 1
BiCGStab:  Solving for PNP, Initial residual = (0.0155222 0.0240789 6.27719e-15), Final residual = (1.87835e-26 2.86745e-26 4.77106e-26), No Iterations 115
maxResidual = 0.0240789

ExecutionTime = 6.5 s  ClockTime = 7 s

Time = 61

         Steady solver/PNP-NS Iteration      # 1
BiCGStab:  Solving for PNP, Initial residual = (0.0523124 0.0782256 1.9601e-14), Final residual = (1.53966e-26 2.34898e-26 3.90539e-26), No Iterations 117
maxResidual = 0.0782256

ExecutionTime = 6.61 s  ClockTime = 7 s

Time = 62

         Steady solver/PNP-NS Iteration      # 1
BiCGStab:  Solving for PNP, Initial residual = (0.0153475 0.0238089 6.33265e-15), Final residual = (2.37998e-26 3.63247e-26 6.19146e-26), No Iterations 106
maxResidual = 0.0238089

ExecutionTime = 6.71 s  ClockTime = 7 s

Time = 63

         Steady solver/PNP-NS Iteration      # 1
BiCGStab:  Solving for PNP, Initial residual = (0.0506941 0.0757496 1.91276e-14), Final residual = (1.40654e-26 2.14943e-26 3.58967e-26), No Iterations 110
maxResidual = 0.0757496

ExecutionTime = 6.81 s  ClockTime = 7 s

Time = 64

         Steady solver/PNP-NS Iteration      # 1
BiCGStab:  Solving for PNP, Initial residual = (0.0151742 0.023541 6.5926e-15), Final residual = (3.00138e-26 4.5811e-26 7.59061e-26), No Iterations 106
maxResidual = 0.023541

ExecutionTime = 6.91 s  ClockTime = 7 s

Time = 65

         Steady solver/PNP-NS Iteration      # 1
BiCGStab:  Solving for PNP, Initial residual = (0.0491457 0.0733827 1.8498e-14), Final residual = (1.69573e-26 2.58845e-26 4.2836e-26), No Iterations 117
maxResidual = 0.0733827

ExecutionTime = 7.02 s  ClockTime = 7 s

Time = 66

         Steady solver/PNP-NS Iteration      # 1
BiCGStab:  Solving for PNP, Initial residual = (0.0150023 0.0232752 6.39701e-15), Final residual = (2.73466e-27 4.17257e-27 6.93789e-27), No Iterations 115
maxResidual = 0.0232752

ExecutionTime = 7.13 s  ClockTime = 7 s

Time = 67

         Steady solver/PNP-NS Iteration      # 1
BiCGStab:  Solving for PNP, Initial residual = (0.0476629 0.0711183 1.91557e-14), Final residual = (1.92545e-26 2.93914e-26 4.85784e-26), No Iterations 110
maxResidual = 0.0711183

ExecutionTime = 7.24 s  ClockTime = 8 s

Time = 68

         Steady solver/PNP-NS Iteration      # 1
BiCGStab:  Solving for PNP, Initial residual = (0.0148317 0.0230114 6.7454e-15), Final residual = (3.1158e-26 4.7556e-26 7.96718e-26), No Iterations 109
maxResidual = 0.0230114

ExecutionTime = 7.34 s  ClockTime = 8 s

Time = 69

         Steady solver/PNP-NS Iteration      # 1
BiCGStab:  Solving for PNP, Initial residual = (0.046242 0.0689502 1.88481e-14), Final residual = (1.01137e-26 1.54378e-26 2.58842e-26), No Iterations 112
maxResidual = 0.0689502

ExecutionTime = 7.44 s  ClockTime = 8 s

Time = 70

         Steady solver/PNP-NS Iteration      # 1
BiCGStab:  Solving for PNP, Initial residual = (0.0146624 0.0227496 6.69822e-15), Final residual = (2.33127e-26 3.55805e-26 5.88735e-26), No Iterations 113
maxResidual = 0.0227496

ExecutionTime = 7.55 s  ClockTime = 8 s

Time = 71

         Steady solver/PNP-NS Iteration      # 1
BiCGStab:  Solving for PNP, Initial residual = (0.0448792 0.0668728 1.8687e-14), Final residual = (2.74917e-26 4.19617e-26 6.96246e-26), No Iterations 115
maxResidual = 0.0668728

ExecutionTime = 7.66 s  ClockTime = 8 s

Time = 72

         Steady solver/PNP-NS Iteration      # 1
BiCGStab:  Solving for PNP, Initial residual = (0.0144944 0.0224898 6.63705e-15), Final residual = (3.12428e-26 4.76422e-26 7.89777e-26), No Iterations 113
maxResidual = 0.0224898

ExecutionTime = 7.77 s  ClockTime = 8 s

Time = 73

         Steady solver/PNP-NS Iteration      # 1
BiCGStab:  Solving for PNP, Initial residual = (0.0435713 0.0648809 1.76287e-14), Final residual = (2.06365e-26 3.14985e-26 5.22751e-26), No Iterations 115
maxResidual = 0.0648809

ExecutionTime = 7.88 s  ClockTime = 8 s

Time = 74

         Steady solver/PNP-NS Iteration      # 1
BiCGStab:  Solving for PNP, Initial residual = (0.0143277 0.0222319 6.67454e-15), Final residual = (1.51549e-26 2.31312e-26 3.83809e-26), No Iterations 108
maxResidual = 0.0222319

ExecutionTime = 7.97 s  ClockTime = 8 s

Time = 75

         Steady solver/PNP-NS Iteration      # 1
BiCGStab:  Solving for PNP, Initial residual = (0.0423153 0.0629695 1.82622e-14), Final residual = (1.26876e-26 1.93669e-26 3.22318e-26), No Iterations 110
maxResidual = 0.0629695

ExecutionTime = 8.08 s  ClockTime = 8 s

Time = 76

         Steady solver/PNP-NS Iteration      # 1
BiCGStab:  Solving for PNP, Initial residual = (0.0141622 0.021976 6.88558e-15), Final residual = (4.81308e-27 7.2666e-27 1.22082e-26), No Iterations 113
maxResidual = 0.021976

ExecutionTime = 8.19 s  ClockTime = 9 s

Time = 77

         Steady solver/PNP-NS Iteration      # 1
BiCGStab:  Solving for PNP, Initial residual = (0.0411082 0.0611343 1.84354e-14), Final residual = (2.09703e-26 3.20101e-26 5.30503e-26), No Iterations 108
maxResidual = 0.0611343

ExecutionTime = 8.29 s  ClockTime = 9 s

Time = 78

         Steady solver/PNP-NS Iteration      # 1
BiCGStab:  Solving for PNP, Initial residual = (0.013998 0.021722 6.57921e-15), Final residual = (4.99229e-27 7.61873e-27 1.27289e-26), No Iterations 111
maxResidual = 0.021722

ExecutionTime = 8.39 s  ClockTime = 9 s

Time = 79

         Steady solver/PNP-NS Iteration      # 1
BiCGStab:  Solving for PNP, Initial residual = (0.0399473 0.059371 1.79863e-14), Final residual = (2.76623e-26 4.22226e-26 7.0069e-26), No Iterations 108
maxResidual = 0.059371

ExecutionTime = 8.5 s  ClockTime = 9 s

Time = 80

         Steady solver/PNP-NS Iteration      # 1
BiCGStab:  Solving for PNP, Initial residual = (0.0138351 0.0214698 6.90952e-15), Final residual = (2.09761e-26 3.20139e-26 5.35588e-26), No Iterations 109
maxResidual = 0.0214698

ExecutionTime = 8.61 s  ClockTime = 9 s

Time = 81

         Steady solver/PNP-NS Iteration      # 1
BiCGStab:  Solving for PNP, Initial residual = (0.0388303 0.0576757 1.69633e-14), Final residual = (1.34739e-26 2.05677e-26 3.42025e-26), No Iterations 115
maxResidual = 0.0576757

ExecutionTime = 8.71 s  ClockTime = 9 s

Time = 82

         Steady solver/PNP-NS Iteration      # 1
BiCGStab:  Solving for PNP, Initial residual = (0.0136733 0.0212195 6.84563e-15), Final residual = (2.23246e-26 3.40473e-26 5.69417e-26), No Iterations 107
maxResidual = 0.0212195

ExecutionTime = 8.81 s  ClockTime = 9 s

Time = 83

         Steady solver/PNP-NS Iteration      # 1
BiCGStab:  Solving for PNP, Initial residual = (0.0377548 0.0560447 1.75944e-14), Final residual = (2.55238e-26 3.89537e-26 6.48593e-26), No Iterations 113
maxResidual = 0.0560447

ExecutionTime = 8.92 s  ClockTime = 9 s

Time = 84

         Steady solver/PNP-NS Iteration      # 1
BiCGStab:  Solving for PNP, Initial residual = (0.0135128 0.0209711 6.98484e-15), Final residual = (2.32906e-26 3.55453e-26 5.89395e-26), No Iterations 109
maxResidual = 0.0209711

ExecutionTime = 9.02 s  ClockTime = 9 s

Time = 85

         Steady solver/PNP-NS Iteration      # 1
BiCGStab:  Solving for PNP, Initial residual = (0.0367186 0.0544748 1.692e-14), Final residual = (1.22207e-26 1.8653e-26 3.10033e-26), No Iterations 124
maxResidual = 0.0544748

ExecutionTime = 9.14 s  ClockTime = 10 s

Time = 86

         Steady solver/PNP-NS Iteration      # 1
BiCGStab:  Solving for PNP, Initial residual = (0.0133534 0.0207244 6.87267e-15), Final residual = (2.51705e-26 3.83675e-26 6.38267e-26), No Iterations 108
maxResidual = 0.0207244

ExecutionTime = 9.24 s  ClockTime = 10 s

Time = 87

         Steady solver/PNP-NS Iteration      # 1
BiCGStab:  Solving for PNP, Initial residual = (0.0357196 0.0529626 1.68136e-14), Final residual = (1.85766e-26 2.83543e-26 4.70576e-26), No Iterations 116
maxResidual = 0.0529626

ExecutionTime = 9.35 s  ClockTime = 10 s

Time = 88

         Steady solver/PNP-NS Iteration      # 1
BiCGStab:  Solving for PNP, Initial residual = (0.0131953 0.0204796 6.84741e-15), Final residual = (3.1164e-26 4.76946e-26 7.89966e-26), No Iterations 109
maxResidual = 0.0204796

ExecutionTime = 9.45 s  ClockTime = 10 s

Time = 89

         Steady solver/PNP-NS Iteration      # 1
BiCGStab:  Solving for PNP, Initial residual = (0.0347561 0.0515053 1.65778e-14), Final residual = (8.15828e-27 1.24517e-26 2.09719e-26), No Iterations 117
maxResidual = 0.0515053

ExecutionTime = 9.56 s  ClockTime = 10 s

Time = 90

         Steady solver/PNP-NS Iteration      # 1
BiCGStab:  Solving for PNP, Initial residual = (0.0130383 0.0202365 7.07111e-15), Final residual = (3.06819e-26 4.68368e-26 7.78673e-26), No Iterations 109
maxResidual = 0.0202365

ExecutionTime = 9.66 s  ClockTime = 10 s

Time = 91

         Steady solver/PNP-NS Iteration      # 1
BiCGStab:  Solving for PNP, Initial residual = (0.0338263 0.0501 1.63472e-14), Final residual = (1.87224e-26 2.85703e-26 4.74693e-26), No Iterations 107
maxResidual = 0.0501

ExecutionTime = 9.76 s  ClockTime = 10 s

Time = 92

         Steady solver/PNP-NS Iteration      # 1
BiCGStab:  Solving for PNP, Initial residual = (0.0128824 0.0199952 6.82805e-15), Final residual = (2.98247e-26 4.52148e-26 7.6139e-26), No Iterations 116
maxResidual = 0.0199952

ExecutionTime = 9.87 s  ClockTime = 10 s

Time = 93

         Steady solver/PNP-NS Iteration      # 1
BiCGStab:  Solving for PNP, Initial residual = (0.0329284 0.0487442 1.6174e-14), Final residual = (2.90411e-26 4.43277e-26 7.35706e-26), No Iterations 111
maxResidual = 0.0487442

ExecutionTime = 9.98 s  ClockTime = 10 s

Time = 94

         Steady solver/PNP-NS Iteration      # 1
BiCGStab:  Solving for PNP, Initial residual = (0.0127277 0.0197556 6.67952e-15), Final residual = (3.12378e-26 4.768e-26 7.90064e-26), No Iterations 109
maxResidual = 0.0197556

ExecutionTime = 10.08 s  ClockTime = 10 s

Time = 95

         Steady solver/PNP-NS Iteration      # 1
BiCGStab:  Solving for PNP, Initial residual = (0.0320609 0.0474354 1.5614e-14), Final residual = (2.04935e-26 3.12553e-26 5.32228e-26), No Iterations 111
maxResidual = 0.0474354

ExecutionTime = 10.19 s  ClockTime = 11 s

Time = 96

         Steady solver/PNP-NS Iteration      # 1
BiCGStab:  Solving for PNP, Initial residual = (0.0125742 0.0195177 6.77755e-15), Final residual = (1.6156e-26 2.46592e-26 4.12195e-26), No Iterations 117
maxResidual = 0.0195177

ExecutionTime = 10.29 s  ClockTime = 11 s

Time = 97

         Steady solver/PNP-NS Iteration      # 1
BiCGStab:  Solving for PNP, Initial residual = (0.0312227 0.0461713 1.56639e-14), Final residual = (1.62696e-26 2.51909e-26 4.16293e-26), No Iterations 109
maxResidual = 0.0461713

ExecutionTime = 10.4 s  ClockTime = 11 s

Time = 98

         Steady solver/PNP-NS Iteration      # 1
BiCGStab:  Solving for PNP, Initial residual = (0.0124217 0.019282 6.74011e-15), Final residual = (2.02107e-26 3.08438e-26 5.13978e-26), No Iterations 109
maxResidual = 0.019282

ExecutionTime = 10.5 s  ClockTime = 11 s

Time = 99

         Steady solver/PNP-NS Iteration      # 1
BiCGStab:  Solving for PNP, Initial residual = (0.0304125 0.0449507 1.55424e-14), Final residual = (8.98624e-27 1.37159e-26 2.27837e-26), No Iterations 110
maxResidual = 0.0449507

ExecutionTime = 10.6 s  ClockTime = 11 s

Time = 100

         Steady solver/PNP-NS Iteration      # 1
BiCGStab:  Solving for PNP, Initial residual = (0.0122705 0.0190479 6.85963e-15), Final residual = (2.76321e-26 4.21705e-26 7.04333e-26), No Iterations 117
maxResidual = 0.0190479

ExecutionTime = 10.72 s  ClockTime = 11 s

Time = 101

         Steady solver/PNP-NS Iteration      # 1
BiCGStab:  Solving for PNP, Initial residual = (0.0296285 0.0437709 1.49297e-14), Final residual = (1.71979e-26 2.62465e-26 4.45139e-26), No Iterations 110
maxResidual = 0.0437709

ExecutionTime = 10.82 s  ClockTime = 11 s

Time = 102

         Steady solver/PNP-NS Iteration      # 1
BiCGStab:  Solving for PNP, Initial residual = (0.0121205 0.0188154 6.77567e-15), Final residual = (1.31605e-26 2.01506e-26 3.35668e-26), No Iterations 111
maxResidual = 0.0188154

ExecutionTime = 10.93 s  ClockTime = 11 s

Time = 103

         Steady solver/PNP-NS Iteration      # 1
BiCGStab:  Solving for PNP, Initial residual = (0.0288694 0.0426295 1.46117e-14), Final residual = (2.68671e-26 4.10518e-26 7.11243e-26), No Iterations 111
maxResidual = 0.0426295

ExecutionTime = 11.03 s  ClockTime = 11 s

Time = 104

         Steady solver/PNP-NS Iteration      # 1
BiCGStab:  Solving for PNP, Initial residual = (0.0119716 0.0185846 6.77892e-15), Final residual = (1.07071e-26 1.63448e-26 2.72398e-26), No Iterations 118
maxResidual = 0.0185846

ExecutionTime = 11.14 s  ClockTime = 12 s

Time = 105

         Steady solver/PNP-NS Iteration      # 1
BiCGStab:  Solving for PNP, Initial residual = (0.0281342 0.0415248 1.55467e-14), Final residual = (9.19239e-27 1.40361e-26 2.38995e-26), No Iterations 110
maxResidual = 0.0415248

ExecutionTime = 11.24 s  ClockTime = 12 s

Time = 106

         Steady solver/PNP-NS Iteration      # 1
BiCGStab:  Solving for PNP, Initial residual = (0.0118237 0.0183553 7.03089e-15), Final residual = (7.66365e-27 1.16968e-26 2.00369e-26), No Iterations 112
maxResidual = 0.0183553

ExecutionTime = 11.36 s  ClockTime = 12 s

Time = 107

         Steady solver/PNP-NS Iteration      # 1
BiCGStab:  Solving for PNP, Initial residual = (0.0274218 0.0404551 1.4954e-14), Final residual = (2.29532e-26 3.51278e-26 5.86967e-26), No Iterations 108
maxResidual = 0.0404551

ExecutionTime = 11.46 s  ClockTime = 12 s

Time = 108

         Steady solver/PNP-NS Iteration      # 1
BiCGStab:  Solving for PNP, Initial residual = (0.0116769 0.0181275 7.03324e-15), Final residual = (3.36609e-27 5.12725e-27 8.60565e-27), No Iterations 117
maxResidual = 0.0181275

ExecutionTime = 11.57 s  ClockTime = 12 s

Time = 109

         Steady solver/PNP-NS Iteration      # 1
BiCGStab:  Solving for PNP, Initial residual = (0.026731 0.0394189 1.48428e-14), Final residual = (2.07451e-26 3.16649e-26 5.26729e-26), No Iterations 109
maxResidual = 0.0394189

ExecutionTime = 11.67 s  ClockTime = 12 s

Time = 110

         Steady solver/PNP-NS Iteration      # 1
BiCGStab:  Solving for PNP, Initial residual = (0.011531 0.0179013 6.94761e-15), Final residual = (1.21236e-27 1.89612e-27 3.17421e-27), No Iterations 114
maxResidual = 0.0179013

ExecutionTime = 11.78 s  ClockTime = 12 s

Time = 111

         Steady solver/PNP-NS Iteration      # 1
BiCGStab:  Solving for PNP, Initial residual = (0.026061 0.0384146 1.42397e-14), Final residual = (1.09406e-26 1.66973e-26 2.8057e-26), No Iterations 110
maxResidual = 0.0384146

ExecutionTime = 11.88 s  ClockTime = 12 s

Time = 112

         Steady solver/PNP-NS Iteration      # 1
BiCGStab:  Solving for PNP, Initial residual = (0.0113861 0.0176766 6.98974e-15), Final residual = (3.10342e-26 4.73612e-26 7.88393e-26), No Iterations 111
maxResidual = 0.0176766

ExecutionTime = 11.99 s  ClockTime = 12 s

Time = 113

         Steady solver/PNP-NS Iteration      # 1
BiCGStab:  Solving for PNP, Initial residual = (0.0254109 0.0374407 1.41658e-14), Final residual = (1.69301e-26 2.58288e-26 4.33342e-26), No Iterations 110
maxResidual = 0.0374407

ExecutionTime = 12.09 s  ClockTime = 13 s

Time = 114

         Steady solver/PNP-NS Iteration      # 1
BiCGStab:  Solving for PNP, Initial residual = (0.0112422 0.0174533 6.86812e-15), Final residual = (2.55094e-26 3.89318e-26 6.49585e-26), No Iterations 112
maxResidual = 0.0174533

ExecutionTime = 12.2 s  ClockTime = 13 s

Time = 115

         Steady solver/PNP-NS Iteration      # 1
BiCGStab:  Solving for PNP, Initial residual = (0.0247798 0.036496 1.44772e-14), Final residual = (1.46394e-26 2.23452e-26 3.7459e-26), No Iterations 111
maxResidual = 0.036496

ExecutionTime = 12.3 s  ClockTime = 13 s

Time = 116

         Steady solver/PNP-NS Iteration      # 1
BiCGStab:  Solving for PNP, Initial residual = (0.0110993 0.0172315 6.77636e-15), Final residual = (2.21618e-26 3.38601e-26 5.6451e-26), No Iterations 110
maxResidual = 0.0172315

ExecutionTime = 12.41 s  ClockTime = 13 s

Time = 117

         Steady solver/PNP-NS Iteration      # 1
BiCGStab:  Solving for PNP, Initial residual = (0.0241668 0.0355792 1.3966e-14), Final residual = (1.59616e-26 2.43624e-26 4.11712e-26), No Iterations 111
maxResidual = 0.0355792

ExecutionTime = 12.5 s  ClockTime = 13 s

Time = 118

         Steady solver/PNP-NS Iteration      # 1
BiCGStab:  Solving for PNP, Initial residual = (0.0109573 0.0170111 6.88229e-15), Final residual = (2.7614e-26 4.21184e-26 7.15509e-26), No Iterations 111
maxResidual = 0.0170111

ExecutionTime = 12.61 s  ClockTime = 13 s

Time = 119

         Steady solver/PNP-NS Iteration      # 1
BiCGStab:  Solving for PNP, Initial residual = (0.0235712 0.034689 1.36639e-14), Final residual = (1.51354e-26 2.31058e-26 3.90475e-26), No Iterations 111
maxResidual = 0.034689

ExecutionTime = 12.71 s  ClockTime = 13 s

Time = 120

         Steady solver/PNP-NS Iteration      # 1
BiCGStab:  Solving for PNP, Initial residual = (0.0108161 0.016792 6.95208e-15), Final residual = (1.80236e-26 2.75018e-26 4.61382e-26), No Iterations 113
maxResidual = 0.016792

ExecutionTime = 12.82 s  ClockTime = 13 s

Time = 121

         Steady solver/PNP-NS Iteration      # 1
BiCGStab:  Solving for PNP, Initial residual = (0.0229923 0.0338244 1.36018e-14), Final residual = (2.71364e-26 4.06831e-26 6.94212e-26), No Iterations 109
maxResidual = 0.0338244

ExecutionTime = 12.92 s  ClockTime = 13 s

Time = 122

         Steady solver/PNP-NS Iteration      # 1
BiCGStab:  Solving for PNP, Initial residual = (0.0106759 0.0165743 7.08786e-15), Final residual = (1.0915e-26 1.66608e-26 2.77186e-26), No Iterations 119
maxResidual = 0.0165743

ExecutionTime = 13.04 s  ClockTime = 13 s

Time = 123

         Steady solver/PNP-NS Iteration      # 1
BiCGStab:  Solving for PNP, Initial residual = (0.0224293 0.0329841 1.35171e-14), Final residual = (2.63979e-26 4.02876e-26 6.83801e-26), No Iterations 115
maxResidual = 0.0329841

ExecutionTime = 13.14 s  ClockTime = 14 s

Time = 124

         Steady solver/PNP-NS Iteration      # 1
BiCGStab:  Solving for PNP, Initial residual = (0.0105366 0.016358 6.77769e-15), Final residual = (3.13102e-26 4.7664e-26 8.02434e-26), No Iterations 111
maxResidual = 0.016358

ExecutionTime = 13.25 s  ClockTime = 14 s

Time = 125

         Steady solver/PNP-NS Iteration      # 1
BiCGStab:  Solving for PNP, Initial residual = (0.0218816 0.0321673 1.34733e-14), Final residual = (3.18675e-26 4.86245e-26 8.11014e-26), No Iterations 116
maxResidual = 0.0321673

ExecutionTime = 13.36 s  ClockTime = 14 s

Time = 126

         Steady solver/PNP-NS Iteration      # 1
BiCGStab:  Solving for PNP, Initial residual = (0.0103981 0.0161429 6.81319e-15), Final residual = (2.55695e-26 3.90279e-26 6.51068e-26), No Iterations 114
maxResidual = 0.0161429

ExecutionTime = 13.46 s  ClockTime = 14 s

Time = 127

         Steady solver/PNP-NS Iteration      # 1
BiCGStab:  Solving for PNP, Initial residual = (0.0213486 0.031373 1.3227e-14), Final residual = (9.38417e-27 1.43445e-26 2.39012e-26), No Iterations 119
maxResidual = 0.031373

ExecutionTime = 13.58 s  ClockTime = 14 s

Time = 128

         Steady solver/PNP-NS Iteration      # 1
BiCGStab:  Solving for PNP, Initial residual = (0.0102605 0.0159291 6.79622e-15), Final residual = (2.76339e-26 4.21668e-26 7.06214e-26), No Iterations 117
maxResidual = 0.0159291

ExecutionTime = 13.69 s  ClockTime = 14 s

Time = 129

         Steady solver/PNP-NS Iteration      # 1
BiCGStab:  Solving for PNP, Initial residual = (0.0208298 0.0306002 1.34791e-14), Final residual = (2.2696e-26 3.46395e-26 5.77337e-26), No Iterations 119
maxResidual = 0.0306002

ExecutionTime = 13.8 s  ClockTime = 14 s

Time = 130

         Steady solver/PNP-NS Iteration      # 1
BiCGStab:  Solving for PNP, Initial residual = (0.0101237 0.0157166 6.95407e-15), Final residual = (7.02708e-27 1.07275e-26 1.788e-26), No Iterations 121
maxResidual = 0.0157166

ExecutionTime = 13.91 s  ClockTime = 14 s

Time = 131

         Steady solver/PNP-NS Iteration      # 1
BiCGStab:  Solving for PNP, Initial residual = (0.0203245 0.0298481 1.30344e-14), Final residual = (2.42536e-26 3.70412e-26 6.20001e-26), No Iterations 113
maxResidual = 0.0298481

ExecutionTime = 14.02 s  ClockTime = 15 s

Time = 132

         Steady solver/PNP-NS Iteration      # 1
BiCGStab:  Solving for PNP, Initial residual = (0.00998766 0.0155053 7.02114e-15), Final residual = (2.9362e-26 4.47977e-26 7.6987e-26), No Iterations 112
maxResidual = 0.0155053

ExecutionTime = 14.13 s  ClockTime = 15 s

Time = 133

         Steady solver/PNP-NS Iteration      # 1
BiCGStab:  Solving for PNP, Initial residual = (0.0198323 0.0291159 1.30769e-14), Final residual = (2.77456e-26 4.23448e-26 7.05704e-26), No Iterations 119
maxResidual = 0.0291159

ExecutionTime = 14.24 s  ClockTime = 15 s

Time = 134

         Steady solver/PNP-NS Iteration      # 1
BiCGStab:  Solving for PNP, Initial residual = (0.00985246 0.0152951 6.94931e-15), Final residual = (3.82673e-27 5.83946e-27 9.93889e-27), No Iterations 120
maxResidual = 0.0152951

ExecutionTime = 14.35 s  ClockTime = 15 s

Time = 135

         Steady solver/PNP-NS Iteration      # 1
BiCGStab:  Solving for PNP, Initial residual = (0.0193522 0.0284024 1.26357e-14), Final residual = (2.55673e-26 3.90177e-26 6.87409e-26), No Iterations 117
maxResidual = 0.0284024

ExecutionTime = 14.47 s  ClockTime = 15 s

Time = 136

         Steady solver/PNP-NS Iteration      # 1
BiCGStab:  Solving for PNP, Initial residual = (0.00971795 0.0150861 6.88751e-15), Final residual = (2.01474e-26 3.07298e-26 5.31271e-26), No Iterations 114
maxResidual = 0.0150861

ExecutionTime = 14.57 s  ClockTime = 15 s

Time = 137

         Steady solver/PNP-NS Iteration      # 1
BiCGStab:  Solving for PNP, Initial residual = (0.0188839 0.0277069 1.26583e-14), Final residual = (8.43802e-27 1.28782e-26 2.15197e-26), No Iterations 119
maxResidual = 0.0277069

ExecutionTime = 14.68 s  ClockTime = 15 s

Time = 138

         Steady solver/PNP-NS Iteration      # 1
BiCGStab:  Solving for PNP, Initial residual = (0.00958412 0.014878 7.03415e-15), Final residual = (2.67211e-26 4.05208e-26 6.93327e-26), No Iterations 114
maxResidual = 0.014878

ExecutionTime = 14.79 s  ClockTime = 15 s

Time = 139

         Steady solver/PNP-NS Iteration      # 1
BiCGStab:  Solving for PNP, Initial residual = (0.018427 0.0270287 1.24459e-14), Final residual = (1.418e-26 2.16369e-26 3.70201e-26), No Iterations 113
maxResidual = 0.0270287

ExecutionTime = 14.9 s  ClockTime = 15 s

Time = 140

         Steady solver/PNP-NS Iteration      # 1
BiCGStab:  Solving for PNP, Initial residual = (0.00945098 0.0146709 6.68663e-15), Final residual = (2.76895e-26 4.22226e-26 7.12407e-26), No Iterations 114
maxResidual = 0.0146709

ExecutionTime = 15.01 s  ClockTime = 16 s

Time = 141

         Steady solver/PNP-NS Iteration      # 1
BiCGStab:  Solving for PNP, Initial residual = (0.0179812 0.0263673 1.20927e-14), Final residual = (1.6594e-26 2.52605e-26 4.28491e-26), No Iterations 112
maxResidual = 0.0263673

ExecutionTime = 15.12 s  ClockTime = 16 s

Time = 142

         Steady solver/PNP-NS Iteration      # 1
BiCGStab:  Solving for PNP, Initial residual = (0.00931854 0.014465 6.98698e-15), Final residual = (8.38949e-27 1.2744e-26 2.23759e-26), No Iterations 115
maxResidual = 0.014465

ExecutionTime = 15.22 s  ClockTime = 16 s

Time = 143

         Steady solver/PNP-NS Iteration      # 1
BiCGStab:  Solving for PNP, Initial residual = (0.0175462 0.0257223 1.25522e-14), Final residual = (3.03166e-26 4.62707e-26 7.77196e-26), No Iterations 113
maxResidual = 0.0257223

ExecutionTime = 15.33 s  ClockTime = 16 s

Time = 144

         Steady solver/PNP-NS Iteration      # 1
BiCGStab:  Solving for PNP, Initial residual = (0.00918681 0.0142601 6.99155e-15), Final residual = (1.72494e-26 2.6316e-26 4.44509e-26), No Iterations 114
maxResidual = 0.0142601

ExecutionTime = 15.44 s  ClockTime = 16 s

Time = 145

         Steady solver/PNP-NS Iteration      # 1
BiCGStab:  Solving for PNP, Initial residual = (0.0171218 0.0250933 1.2275e-14), Final residual = (1.45579e-26 2.21694e-26 3.71661e-26), No Iterations 113
maxResidual = 0.0250933

ExecutionTime = 15.54 s  ClockTime = 16 s

Time = 146

         Steady solver/PNP-NS Iteration      # 1
BiCGStab:  Solving for PNP, Initial residual = (0.00905581 0.0140566 6.82727e-15), Final residual = (2.21112e-26 3.37384e-26 5.70184e-26), No Iterations 112
maxResidual = 0.0140566

ExecutionTime = 15.65 s  ClockTime = 16 s

Time = 147

         Steady solver/PNP-NS Iteration      # 1
BiCGStab:  Solving for PNP, Initial residual = (0.0167076 0.0244797 1.22637e-14), Final residual = (3.04357e-26 4.64497e-26 7.77694e-26), No Iterations 119
maxResidual = 0.0244797

ExecutionTime = 15.76 s  ClockTime = 16 s

Time = 148

         Steady solver/PNP-NS Iteration      # 1
BiCGStab:  Solving for PNP, Initial residual = (0.00892556 0.0138542 7.11396e-15), Final residual = (2.53887e-26 3.87319e-26 6.6321e-26), No Iterations 115
maxResidual = 0.0138542

ExecutionTime = 15.87 s  ClockTime = 16 s

Time = 149

         Steady solver/PNP-NS Iteration      # 1
BiCGStab:  Solving for PNP, Initial residual = (0.0163035 0.0238814 1.19576e-14), Final residual = (1.60549e-26 2.42056e-26 4.23451e-26), No Iterations 114
maxResidual = 0.0238814

ExecutionTime = 15.97 s  ClockTime = 16 s

Time = 150

         Steady solver/PNP-NS Iteration      # 1
BiCGStab:  Solving for PNP, Initial residual = (0.0087961 0.013653 7.15337e-15), Final residual = (1.83104e-26 2.80158e-26 4.84566e-26), No Iterations 120
maxResidual = 0.013653

ExecutionTime = 16.09 s  ClockTime = 17 s

Time = 151

         Steady solver/PNP-NS Iteration      # 1
BiCGStab:  Solving for PNP, Initial residual = (0.0159092 0.0232979 1.18656e-14), Final residual = (1.5322e-26 2.34269e-26 3.95735e-26), No Iterations 114
maxResidual = 0.0232979

ExecutionTime = 16.2 s  ClockTime = 17 s

Time = 152

         Steady solver/PNP-NS Iteration      # 1
BiCGStab:  Solving for PNP, Initial residual = (0.00866745 0.0134529 7.02953e-15), Final residual = (1.06291e-26 1.62198e-26 2.72259e-26), No Iterations 121
maxResidual = 0.0134529

ExecutionTime = 16.31 s  ClockTime = 17 s

Time = 153

         Steady solver/PNP-NS Iteration      # 1
BiCGStab:  Solving for PNP, Initial residual = (0.0155247 0.0227289 1.20457e-14), Final residual = (1.85982e-26 2.83699e-26 4.95171e-26), No Iterations 114
maxResidual = 0.0227289

ExecutionTime = 16.42 s  ClockTime = 17 s

Time = 154

         Steady solver/PNP-NS Iteration      # 1
BiCGStab:  Solving for PNP, Initial residual = (0.00853966 0.0132542 7.14183e-15), Final residual = (7.49696e-27 1.14299e-26 2.06697e-26), No Iterations 115
maxResidual = 0.0132542

ExecutionTime = 16.53 s  ClockTime = 17 s

Time = 155

         Steady solver/PNP-NS Iteration      # 1
BiCGStab:  Solving for PNP, Initial residual = (0.0151496 0.0221742 1.19977e-14), Final residual = (2.98089e-26 4.55351e-26 7.84367e-26), No Iterations 117
maxResidual = 0.0221742

ExecutionTime = 16.64 s  ClockTime = 17 s

Time = 156

         Steady solver/PNP-NS Iteration      # 1
BiCGStab:  Solving for PNP, Initial residual = (0.00841277 0.0130569 7.02402e-15), Final residual = (2.36484e-26 3.60673e-26 6.18655e-26), No Iterations 113
maxResidual = 0.0130569

ExecutionTime = 16.75 s  ClockTime = 17 s

Time = 157

         Steady solver/PNP-NS Iteration      # 1
BiCGStab:  Solving for PNP, Initial residual = (0.0147839 0.0216337 1.17985e-14), Final residual = (2.44032e-26 3.72393e-26 6.30336e-26), No Iterations 114
maxResidual = 0.0216337

ExecutionTime = 16.85 s  ClockTime = 17 s

Time = 158

         Steady solver/PNP-NS Iteration      # 1
BiCGStab:  Solving for PNP, Initial residual = (0.00828683 0.012861 6.97728e-15), Final residual = (1.42577e-26 2.20289e-26 3.77819e-26), No Iterations 114
maxResidual = 0.012861

ExecutionTime = 16.96 s  ClockTime = 17 s

Time = 159

         Steady solver/PNP-NS Iteration      # 1
BiCGStab:  Solving for PNP, Initial residual = (0.0144274 0.0211068 1.16687e-14), Final residual = (2.92056e-26 4.44454e-26 7.52574e-26), No Iterations 113
maxResidual = 0.0211068

ExecutionTime = 17.07 s  ClockTime = 18 s

Time = 160

         Steady solver/PNP-NS Iteration      # 1
BiCGStab:  Solving for PNP, Initial residual = (0.00816188 0.0126667 6.898e-15), Final residual = (2.14436e-26 3.26967e-26 5.87519e-26), No Iterations 113
maxResidual = 0.0126667

ExecutionTime = 17.18 s  ClockTime = 18 s

Time = 161

         Steady solver/PNP-NS Iteration      # 1
BiCGStab:  Solving for PNP, Initial residual = (0.01408 0.0205935 1.16407e-14), Final residual = (2.47852e-26 3.78113e-26 6.56684e-26), No Iterations 112
maxResidual = 0.0205935

ExecutionTime = 17.28 s  ClockTime = 18 s

Time = 162

         Steady solver/PNP-NS Iteration      # 1
BiCGStab:  Solving for PNP, Initial residual = (0.00803798 0.0124741 7.0972e-15), Final residual = (1.5818e-26 2.41361e-26 4.04822e-26), No Iterations 112
maxResidual = 0.0124741

ExecutionTime = 17.38 s  ClockTime = 18 s

Time = 163

         Steady solver/PNP-NS Iteration      # 1
BiCGStab:  Solving for PNP, Initial residual = (0.0137416 0.0200935 1.14546e-14), Final residual = (2.96195e-26 4.52016e-26 7.66108e-26), No Iterations 119
maxResidual = 0.0200935

ExecutionTime = 17.5 s  ClockTime = 18 s

Time = 164

         Steady solver/PNP-NS Iteration      # 1
BiCGStab:  Solving for PNP, Initial residual = (0.00791519 0.0122832 7.25866e-15), Final residual = (2.51446e-26 3.83461e-26 6.68825e-26), No Iterations 119
maxResidual = 0.0122832

ExecutionTime = 17.61 s  ClockTime = 18 s

Time = 165

         Steady solver/PNP-NS Iteration      # 1
BiCGStab:  Solving for PNP, Initial residual = (0.013412 0.0196067 1.1461e-14), Final residual = (3.04404e-26 4.64811e-26 7.83474e-26), No Iterations 114
maxResidual = 0.0196067

ExecutionTime = 17.72 s  ClockTime = 18 s

Time = 166

         Steady solver/PNP-NS Iteration      # 1
BiCGStab:  Solving for PNP, Initial residual = (0.00779357 0.0120941 7.2812e-15), Final residual = (2.42332e-26 3.69154e-26 6.62809e-26), No Iterations 115
maxResidual = 0.0120941

ExecutionTime = 17.82 s  ClockTime = 18 s

Time = 167

         Steady solver/PNP-NS Iteration      # 1
BiCGStab:  Solving for PNP, Initial residual = (0.0130912 0.019133 1.16443e-14), Final residual = (1.90394e-26 2.90424e-26 5.11786e-26), No Iterations 111
maxResidual = 0.019133

ExecutionTime = 17.92 s  ClockTime = 18 s

Time = 168

         Steady solver/PNP-NS Iteration      # 1
BiCGStab:  Solving for PNP, Initial residual = (0.00767318 0.0119071 6.90482e-15), Final residual = (2.62007e-26 3.99767e-26 6.75677e-26), No Iterations 114
maxResidual = 0.0119071

ExecutionTime = 18.03 s  ClockTime = 19 s

Time = 169

         Steady solver/PNP-NS Iteration      # 1
BiCGStab:  Solving for PNP, Initial residual = (0.0127792 0.018672 1.13423e-14), Final residual = (1.27206e-26 1.94136e-26 3.27697e-26), No Iterations 119
maxResidual = 0.018672

ExecutionTime = 18.14 s  ClockTime = 19 s

Time = 170

         Steady solver/PNP-NS Iteration      # 1
BiCGStab:  Solving for PNP, Initial residual = (0.00755407 0.011722 7.08609e-15), Final residual = (6.56999e-27 1.00011e-26 1.72237e-26), No Iterations 113
maxResidual = 0.011722

ExecutionTime = 18.25 s  ClockTime = 19 s

Time = 171

         Steady solver/PNP-NS Iteration      # 1
BiCGStab:  Solving for PNP, Initial residual = (0.0124757 0.0182236 1.14677e-14), Final residual = (8.43008e-27 1.28572e-26 2.27591e-26), No Iterations 113
maxResidual = 0.0182236

ExecutionTime = 18.36 s  ClockTime = 19 s

Time = 172

         Steady solver/PNP-NS Iteration      # 1
BiCGStab:  Solving for PNP, Initial residual = (0.00743633 0.0115391 7.08976e-15), Final residual = (1.69846e-26 2.59161e-26 4.38178e-26), No Iterations 121
maxResidual = 0.0115391

ExecutionTime = 18.47 s  ClockTime = 19 s

Time = 173

         Steady solver/PNP-NS Iteration      # 1
BiCGStab:  Solving for PNP, Initial residual = (0.0121806 0.0177876 1.12412e-14), Final residual = (2.88817e-26 4.40358e-26 7.89265e-26), No Iterations 112
maxResidual = 0.0177876

ExecutionTime = 18.58 s  ClockTime = 19 s

Time = 174

         Steady solver/PNP-NS Iteration      # 1
BiCGStab:  Solving for PNP, Initial residual = (0.00731999 0.0113584 6.96647e-15), Final residual = (2.17666e-26 3.32109e-26 5.6759e-26), No Iterations 113
maxResidual = 0.0113584

ExecutionTime = 18.68 s  ClockTime = 19 s

Time = 175

         Steady solver/PNP-NS Iteration      # 1
BiCGStab:  Solving for PNP, Initial residual = (0.0118936 0.0173639 1.13394e-14), Final residual = (9.09222e-27 1.38831e-26 2.40101e-26), No Iterations 112
maxResidual = 0.0173639

ExecutionTime = 18.79 s  ClockTime = 19 s

Time = 176

         Steady solver/PNP-NS Iteration      # 1
BiCGStab:  Solving for PNP, Initial residual = (0.00720511 0.0111801 7.2844e-15), Final residual = (2.18966e-26 3.33995e-26 5.7886e-26), No Iterations 120
maxResidual = 0.0111801

ExecutionTime = 18.9 s  ClockTime = 19 s

Time = 177

         Steady solver/PNP-NS Iteration      # 1
BiCGStab:  Solving for PNP, Initial residual = (0.0116147 0.0169521 1.07233e-14), Final residual = (3.0795e-26 4.69893e-26 7.96013e-26), No Iterations 119
maxResidual = 0.0169521

ExecutionTime = 19.02 s  ClockTime = 20 s

Time = 178

         Steady solver/PNP-NS Iteration      # 1
BiCGStab:  Solving for PNP, Initial residual = (0.00709174 0.0110041 7.05601e-15), Final residual = (1.89645e-26 2.89352e-26 4.90196e-26), No Iterations 113
maxResidual = 0.0110041

ExecutionTime = 19.12 s  ClockTime = 20 s

Time = 179

         Steady solver/PNP-NS Iteration      # 1
BiCGStab:  Solving for PNP, Initial residual = (0.0113438 0.016552 1.09626e-14), Final residual = (1.80908e-26 2.76046e-26 4.6818e-26), No Iterations 120
maxResidual = 0.016552

ExecutionTime = 19.23 s  ClockTime = 20 s

Time = 180

         Steady solver/PNP-NS Iteration      # 1
BiCGStab:  Solving for PNP, Initial residual = (0.00697992 0.0108306 6.91142e-15), Final residual = (1.03801e-26 1.57803e-26 2.87315e-26), No Iterations 113
maxResidual = 0.0108306

ExecutionTime = 19.35 s  ClockTime = 20 s

Time = 181

         Steady solver/PNP-NS Iteration      # 1
BiCGStab:  Solving for PNP, Initial residual = (0.0110806 0.0161637 1.081e-14), Final residual = (2.88915e-26 4.40872e-26 7.49902e-26), No Iterations 112
maxResidual = 0.0161637

ExecutionTime = 19.45 s  ClockTime = 20 s

Time = 182

         Steady solver/PNP-NS Iteration      # 1
BiCGStab:  Solving for PNP, Initial residual = (0.0068697 0.0106596 7.39715e-15), Final residual = (2.62054e-26 3.99537e-26 6.85628e-26), No Iterations 113
maxResidual = 0.0106596

ExecutionTime = 19.56 s  ClockTime = 20 s

Time = 183

         Steady solver/PNP-NS Iteration      # 1
BiCGStab:  Solving for PNP, Initial residual = (0.0108251 0.0157866 1.06888e-14), Final residual = (1.60571e-26 2.44652e-26 4.27061e-26), No Iterations 113
maxResidual = 0.0157866

ExecutionTime = 19.66 s  ClockTime = 20 s

Time = 184

         Steady solver/PNP-NS Iteration      # 1
BiCGStab:  Solving for PNP, Initial residual = (0.0067611 0.0104911 7.2231e-15), Final residual = (7.52164e-27 1.14754e-26 1.95741e-26), No Iterations 122
maxResidual = 0.0104911

ExecutionTime = 19.78 s  ClockTime = 20 s

Time = 185

         Steady solver/PNP-NS Iteration      # 1
BiCGStab:  Solving for PNP, Initial residual = (0.010577 0.0154205 1.05547e-14), Final residual = (2.81275e-26 4.29235e-26 7.37347e-26), No Iterations 119
maxResidual = 0.0154205

ExecutionTime = 19.89 s  ClockTime = 20 s

Time = 186

         Steady solver/PNP-NS Iteration      # 1
BiCGStab:  Solving for PNP, Initial residual = (0.00665418 0.0103253 6.98973e-15), Final residual = (1.06364e-26 1.62282e-26 2.76347e-26), No Iterations 122
maxResidual = 0.0103253

ExecutionTime = 20 s  ClockTime = 21 s

Time = 187

         Steady solver/PNP-NS Iteration      # 1
BiCGStab:  Solving for PNP, Initial residual = (0.0103362 0.0150655 1.03548e-14), Final residual = (1.56615e-26 2.39272e-26 4.09686e-26), No Iterations 114
maxResidual = 0.0150655

ExecutionTime = 20.11 s  ClockTime = 21 s

Time = 188

         Steady solver/PNP-NS Iteration      # 1
BiCGStab:  Solving for PNP, Initial residual = (0.00654895 0.0101621 7.22682e-15), Final residual = (2.44514e-26 3.73186e-26 6.36918e-26), No Iterations 112
maxResidual = 0.0101621

ExecutionTime = 20.21 s  ClockTime = 21 s

Time = 189

         Steady solver/PNP-NS Iteration      # 1
BiCGStab:  Solving for PNP, Initial residual = (0.0101025 0.0147209 1.0617e-14), Final residual = (1.42735e-26 2.17953e-26 3.73641e-26), No Iterations 112
maxResidual = 0.0147209

ExecutionTime = 20.31 s  ClockTime = 21 s

Time = 190

         Steady solver/PNP-NS Iteration      # 1
BiCGStab:  Solving for PNP, Initial residual = (0.00644543 0.0100016 7.06933e-15), Final residual = (2.16876e-26 3.30836e-26 5.82072e-26), No Iterations 112
maxResidual = 0.0100016

ExecutionTime = 20.42 s  ClockTime = 21 s

Time = 191

         Steady solver/PNP-NS Iteration      # 1
BiCGStab:  Solving for PNP, Initial residual = (0.00987578 0.0143865 1.03982e-14), Final residual = (1.2867e-26 1.94893e-26 3.56816e-26), No Iterations 111
maxResidual = 0.0143865

ExecutionTime = 20.53 s  ClockTime = 21 s

Time = 192

         Steady solver/PNP-NS Iteration      # 1
BiCGStab:  Solving for PNP, Initial residual = (0.00634364 0.00984384 7.10045e-15), Final residual = (2.61628e-26 3.97447e-26 7.21749e-26), No Iterations 112
maxResidual = 0.00984384

ExecutionTime = 20.63 s  ClockTime = 21 s

Time = 193

         Steady solver/PNP-NS Iteration      # 1
BiCGStab:  Solving for PNP, Initial residual = (0.00965582 0.0140623 1.02515e-14), Final residual = (1.04588e-26 1.5952e-26 2.7982e-26), No Iterations 114
maxResidual = 0.0140623

ExecutionTime = 20.74 s  ClockTime = 21 s

Time = 194

         Steady solver/PNP-NS Iteration      # 1
BiCGStab:  Solving for PNP, Initial residual = (0.00624359 0.00968878 7.25479e-15), Final residual = (2.52764e-26 3.85607e-26 6.628e-26), No Iterations 113
maxResidual = 0.00968878

ExecutionTime = 20.84 s  ClockTime = 21 s

Time = 195

         Steady solver/PNP-NS Iteration      # 1
BiCGStab:  Solving for PNP, Initial residual = (0.00944245 0.0137479 1.01573e-14), Final residual = (2.88518e-27 4.40063e-27 7.55658e-27), No Iterations 111
maxResidual = 0.0137479

ExecutionTime = 20.95 s  ClockTime = 22 s

Time = 196

         Steady solver/PNP-NS Iteration      # 1
BiCGStab:  Solving for PNP, Initial residual = (0.0061453 0.00953646 7.27926e-15), Final residual = (2.32313e-26 3.54205e-26 6.30731e-26), No Iterations 113
maxResidual = 0.00953646

ExecutionTime = 21.05 s  ClockTime = 22 s

Time = 197

         Steady solver/PNP-NS Iteration      # 1
BiCGStab:  Solving for PNP, Initial residual = (0.0092355 0.013443 1.0385e-14), Final residual = (1.13991e-26 1.73929e-26 2.99994e-26), No Iterations 119
maxResidual = 0.013443

ExecutionTime = 21.16 s  ClockTime = 22 s

Time = 198

         Steady solver/PNP-NS Iteration      # 1
BiCGStab:  Solving for PNP, Initial residual = (0.00604876 0.00938689 7.10133e-15), Final residual = (6.8664e-27 1.05334e-26 2.16769e-26), No Iterations 120
maxResidual = 0.00938689

ExecutionTime = 21.27 s  ClockTime = 22 s

Time = 199

         Steady solver/PNP-NS Iteration      # 1
BiCGStab:  Solving for PNP, Initial residual = (0.00903478 0.0131472 1.04165e-14), Final residual = (1.20576e-26 1.83853e-26 3.26377e-26), No Iterations 120
maxResidual = 0.0131472

ExecutionTime = 21.39 s  ClockTime = 22 s

Time = 200

         Steady solver/PNP-NS Iteration      # 1
BiCGStab:  Solving for PNP, Initial residual = (0.00595399 0.00924005 7.28699e-15), Final residual = (1.21809e-26 1.84759e-26 3.63353e-26), No Iterations 112
maxResidual = 0.00924005

ExecutionTime = 21.51 s  ClockTime = 22 s

Time = 201

         Steady solver/PNP-NS Iteration      # 1
BiCGStab:  Solving for PNP, Initial residual = (0.00884012 0.0128607 1.03961e-14), Final residual = (1.6367e-26 2.49609e-26 4.40242e-26), No Iterations 111
maxResidual = 0.0128607

ExecutionTime = 21.61 s  ClockTime = 22 s

Time = 202

         Steady solver/PNP-NS Iteration      # 1
BiCGStab:  Solving for PNP, Initial residual = (0.00586097 0.00909596 7.34213e-15), Final residual = (2.34978e-26 3.58198e-26 6.39393e-26), No Iterations 114
maxResidual = 0.00909596

ExecutionTime = 21.71 s  ClockTime = 22 s

Time = 203

         Steady solver/PNP-NS Iteration      # 1
BiCGStab:  Solving for PNP, Initial residual = (0.00865133 0.0125827 1.03741e-14), Final residual = (4.13971e-27 6.31294e-27 1.11757e-26), No Iterations 112
maxResidual = 0.0125827

ExecutionTime = 21.82 s  ClockTime = 22 s

Time = 204

         Steady solver/PNP-NS Iteration      # 1
BiCGStab:  Solving for PNP, Initial residual = (0.0057697 0.0089546 7.13022e-15), Final residual = (1.18506e-26 1.80696e-26 3.16479e-26), No Iterations 112
maxResidual = 0.0089546

ExecutionTime = 21.93 s  ClockTime = 23 s

Time = 205

         Steady solver/PNP-NS Iteration      # 1
BiCGStab:  Solving for PNP, Initial residual = (0.00846824 0.0123132 1.058e-14), Final residual = (2.44706e-26 3.73279e-26 6.45283e-26), No Iterations 113
cMinus: -1.19997e-09 .  Bounding.
maxResidual = 0.0123132

ExecutionTime = 22.03 s  ClockTime = 23 s

Time = 206

         Steady solver/PNP-NS Iteration      # 1
BiCGStab:  Solving for PNP, Initial residual = (0.00568019 0.00881595 7.36902e-15), Final residual = (2.34417e-26 3.57243e-26 6.49928e-26), No Iterations 113
maxResidual = 0.00881595

ExecutionTime = 22.14 s  ClockTime = 23 s

Time = 207

         Steady solver/PNP-NS Iteration      # 1
BiCGStab:  Solving for PNP, Initial residual = (0.00829068 0.012052 1.05737e-14), Final residual = (1.75052e-26 2.6707e-26 4.72667e-26), No Iterations 112
cMinus: -2.93548e-09 .  Bounding.
maxResidual = 0.012052

ExecutionTime = 22.24 s  ClockTime = 23 s

Time = 208

         Steady solver/PNP-NS Iteration      # 1
BiCGStab:  Solving for PNP, Initial residual = (0.00559246 0.00868003 7.46298e-15), Final residual = (1.98454e-26 3.02646e-26 5.27606e-26), No Iterations 120
maxResidual = 0.00868003

ExecutionTime = 22.35 s  ClockTime = 23 s

Time = 209

         Steady solver/PNP-NS Iteration      # 1
BiCGStab:  Solving for PNP, Initial residual = (0.00811855 0.0117988 1.05377e-14), Final residual = (1.44009e-26 2.19634e-26 3.87891e-26), No Iterations 112
cMinus: -3.39737e-09 .  Bounding.
maxResidual = 0.0117988

ExecutionTime = 22.46 s  ClockTime = 23 s

Time = 210

         Steady solver/PNP-NS Iteration      # 1
BiCGStab:  Solving for PNP, Initial residual = (0.00550645 0.00854685 7.25674e-15), Final residual = (1.16086e-26 1.7789e-26 3.20924e-26), No Iterations 112
maxResidual = 0.00854685

ExecutionTime = 22.57 s  ClockTime = 23 s

Time = 211

         Steady solver/PNP-NS Iteration      # 1
BiCGStab:  Solving for PNP, Initial residual = (0.00795161 0.0115533 1.02104e-14), Final residual = (9.77653e-27 1.49117e-26 2.62031e-26), No Iterations 113
cMinus: -3.25642e-09 .  Bounding.
maxResidual = 0.0115533

ExecutionTime = 22.67 s  ClockTime = 23 s

Time = 212

         Steady solver/PNP-NS Iteration      # 1
BiCGStab:  Solving for PNP, Initial residual = (0.00542214 0.00841632 7.35737e-15), Final residual = (2.92049e-26 4.44767e-26 7.7809e-26), No Iterations 119
maxResidual = 0.00841632

ExecutionTime = 22.78 s  ClockTime = 23 s

Time = 213

         Steady solver/PNP-NS Iteration      # 1
BiCGStab:  Solving for PNP, Initial residual = (0.0077897 0.0113151 1.05951e-14), Final residual = (1.12941e-26 1.723e-26 2.97405e-26), No Iterations 120
cMinus: -2.86831e-09 .  Bounding.
maxResidual = 0.0113151

ExecutionTime = 22.89 s  ClockTime = 24 s

Time = 214

         Steady solver/PNP-NS Iteration      # 1
BiCGStab:  Solving for PNP, Initial residual = (0.00533951 0.00828839 7.36238e-15), Final residual = (2.49066e-26 3.79927e-26 6.58559e-26), No Iterations 120
maxResidual = 0.00828839

ExecutionTime = 23.01 s  ClockTime = 24 s

Time = 215

         Steady solver/PNP-NS Iteration      # 1
BiCGStab:  Solving for PNP, Initial residual = (0.00763265 0.0110842 1.02488e-14), Final residual = (2.72538e-26 4.15458e-26 7.4784e-26), No Iterations 109
cMinus: -2.41339e-09 .  Bounding.
maxResidual = 0.0110842

ExecutionTime = 23.11 s  ClockTime = 24 s

Time = 216

         Steady solver/PNP-NS Iteration      # 1
BiCGStab:  Solving for PNP, Initial residual = (0.00525855 0.00816306 7.44452e-15), Final residual = (2.72214e-26 4.15115e-26 7.23412e-26), No Iterations 117
maxResidual = 0.00816306

ExecutionTime = 23.22 s  ClockTime = 24 s

Time = 217

         Steady solver/PNP-NS Iteration      # 1
BiCGStab:  Solving for PNP, Initial residual = (0.00748029 0.0108603 1.05645e-14), Final residual = (2.82873e-26 4.31499e-26 7.53734e-26), No Iterations 119
cMinus: -1.97645e-09 .  Bounding.
maxResidual = 0.0108603

ExecutionTime = 23.33 s  ClockTime = 24 s

Time = 218

         Steady solver/PNP-NS Iteration      # 1
BiCGStab:  Solving for PNP, Initial residual = (0.00517922 0.00804029 7.46984e-15), Final residual = (2.34188e-26 3.57502e-26 6.20351e-26), No Iterations 116
maxResidual = 0.00804029

ExecutionTime = 23.44 s  ClockTime = 24 s

Time = 219

         Steady solver/PNP-NS Iteration      # 1
BiCGStab:  Solving for PNP, Initial residual = (0.00733248 0.010643 1.04065e-14), Final residual = (1.50211e-26 2.2882e-26 4.22678e-26), No Iterations 112
cMinus: -1.59197e-09 .  Bounding.
maxResidual = 0.010643

ExecutionTime = 23.54 s  ClockTime = 24 s

Time = 220

         Steady solver/PNP-NS Iteration      # 1
BiCGStab:  Solving for PNP, Initial residual = (0.00510153 0.00792003 7.31545e-15), Final residual = (2.97415e-26 4.53372e-26 8.1498e-26), No Iterations 116
maxResidual = 0.00792003

ExecutionTime = 23.66 s  ClockTime = 24 s

Time = 221

         Steady solver/PNP-NS Iteration      # 1
BiCGStab:  Solving for PNP, Initial residual = (0.00718906 0.0104322 1.01549e-14), Final residual = (1.77673e-26 2.70845e-26 4.88877e-26), No Iterations 119
cMinus: -1.33821e-09 .  Bounding.
maxResidual = 0.0104322

ExecutionTime = 23.77 s  ClockTime = 24 s

Time = 222

         Steady solver/PNP-NS Iteration      # 1
BiCGStab:  Solving for PNP, Initial residual = (0.00502544 0.00780224 7.46046e-15), Final residual = (2.45463e-26 3.74489e-26 6.52899e-26), No Iterations 118
maxResidual = 0.00780224

ExecutionTime = 23.88 s  ClockTime = 25 s

Time = 223

         Steady solver/PNP-NS Iteration      # 1
BiCGStab:  Solving for PNP, Initial residual = (0.00704989 0.0102279 1.00789e-14), Final residual = (2.23613e-26 3.41155e-26 5.88208e-26), No Iterations 113
cMinus: -1.22457e-09 .  Bounding.
maxResidual = 0.0102279

ExecutionTime = 23.99 s  ClockTime = 25 s

Time = 224

         Steady solver/PNP-NS Iteration      # 1
BiCGStab:  Solving for PNP, Initial residual = (0.00495091 0.0076869 7.32572e-15), Final residual = (1.32298e-26 2.01657e-26 3.72827e-26), No Iterations 115
maxResidual = 0.0076869

ExecutionTime = 24.09 s  ClockTime = 25 s

Time = 225

         Steady solver/PNP-NS Iteration      # 1
BiCGStab:  Solving for PNP, Initial residual = (0.00691482 0.0100296 1.02243e-14), Final residual = (1.96946e-26 3.00222e-26 5.48817e-26), No Iterations 114
cMinus: -1.05875e-09 .  Bounding.
maxResidual = 0.0100296

ExecutionTime = 24.2 s  ClockTime = 25 s

Time = 226

         Steady solver/PNP-NS Iteration      # 1
BiCGStab:  Solving for PNP, Initial residual = (0.00487793 0.00757397 7.47178e-15), Final residual = (2.43115e-26 3.70694e-26 6.56085e-26), No Iterations 117
maxResidual = 0.00757397

ExecutionTime = 24.31 s  ClockTime = 25 s

Time = 227

         Steady solver/PNP-NS Iteration      # 1
BiCGStab:  Solving for PNP, Initial residual = (0.00678371 0.00983702 1.0054e-14), Final residual = (4.57942e-27 6.97812e-27 1.24903e-26), No Iterations 112
cMinus: -1.23589e-09 .  Bounding.
maxResidual = 0.00983702

ExecutionTime = 24.41 s  ClockTime = 25 s

Time = 228

         Steady solver/PNP-NS Iteration      # 1
BiCGStab:  Solving for PNP, Initial residual = (0.00480647 0.00746338 7.48853e-15), Final residual = (1.29599e-26 1.97605e-26 3.51116e-26), No Iterations 123
maxResidual = 0.00746338

ExecutionTime = 24.52 s  ClockTime = 25 s

Time = 229

         Steady solver/PNP-NS Iteration      # 1
BiCGStab:  Solving for PNP, Initial residual = (0.00665643 0.00965008 1.0269e-14), Final residual = (1.73808e-26 2.65035e-26 4.75267e-26), No Iterations 113
cMinus: -1.2438e-09 .  Bounding.
maxResidual = 0.00965008

ExecutionTime = 24.63 s  ClockTime = 25 s

Time = 230

         Steady solver/PNP-NS Iteration      # 1
BiCGStab:  Solving for PNP, Initial residual = (0.00473651 0.0073551 7.3122e-15), Final residual = (1.07845e-26 1.64419e-26 2.9261e-26), No Iterations 124
maxResidual = 0.0073551

ExecutionTime = 24.76 s  ClockTime = 25 s

Time = 231

         Steady solver/PNP-NS Iteration      # 1
BiCGStab:  Solving for PNP, Initial residual = (0.00653284 0.0094688 9.8362e-15), Final residual = (7.11952e-27 1.08528e-26 1.9568e-26), No Iterations 121
cMinus: -1.1366e-09 .  Bounding.
maxResidual = 0.0094688

ExecutionTime = 24.87 s  ClockTime = 26 s

Time = 232

         Steady solver/PNP-NS Iteration      # 1
BiCGStab:  Solving for PNP, Initial residual = (0.00466801 0.0072491 7.50191e-15), Final residual = (1.3936e-26 2.11781e-26 3.77448e-26), No Iterations 122
maxResidual = 0.0072491

ExecutionTime = 24.98 s  ClockTime = 26 s

Time = 233

         Steady solver/PNP-NS Iteration      # 1
BiCGStab:  Solving for PNP, Initial residual = (0.00641282 0.00929277 9.70955e-15), Final residual = (1.54029e-26 2.34836e-26 4.11703e-26), No Iterations 111
cMinus: -1.04596e-09 .  Bounding.
maxResidual = 0.00929277

ExecutionTime = 25.09 s  ClockTime = 26 s

Time = 234

         Steady solver/PNP-NS Iteration      # 1
BiCGStab:  Solving for PNP, Initial residual = (0.00460095 0.00714534 7.47263e-15), Final residual = (2.21084e-26 3.36298e-26 6.75174e-26), No Iterations 118
maxResidual = 0.00714534

ExecutionTime = 25.2 s  ClockTime = 26 s

Time = 235

         Steady solver/PNP-NS Iteration      # 1
BiCGStab:  Solving for PNP, Initial residual = (0.00629625 0.00912174 9.67725e-15), Final residual = (1.77344e-26 2.70521e-26 4.72474e-26), No Iterations 114
cMinus: -1.26624e-09 .  Bounding.
maxResidual = 0.00912174

ExecutionTime = 25.31 s  ClockTime = 26 s

Time = 236

         Steady solver/PNP-NS Iteration      # 1
BiCGStab:  Solving for PNP, Initial residual = (0.0045353 0.00704374 7.47652e-15), Final residual = (6.06422e-27 9.24399e-27 1.72907e-26), No Iterations 125
maxResidual = 0.00704374

ExecutionTime = 25.43 s  ClockTime = 26 s

Time = 237

         Steady solver/PNP-NS Iteration      # 1
BiCGStab:  Solving for PNP, Initial residual = (0.006183 0.00895559 9.73081e-15), Final residual = (2.54192e-26 3.87718e-26 6.88161e-26), No Iterations 114
cMinus: -1.26425e-09 .  Bounding.
maxResidual = 0.00895559

ExecutionTime = 25.53 s  ClockTime = 26 s

Time = 238

         Steady solver/PNP-NS Iteration      # 1
BiCGStab:  Solving for PNP, Initial residual = (0.00447103 0.00694428 7.46712e-15), Final residual = (4.306e-27 6.64872e-27 1.18372e-26), No Iterations 122
maxResidual = 0.00694428

ExecutionTime = 25.64 s  ClockTime = 26 s

Time = 239

         Steady solver/PNP-NS Iteration      # 1
BiCGStab:  Solving for PNP, Initial residual = (0.00607296 0.00879428 9.29733e-15), Final residual = (1.92896e-26 2.9414e-26 5.23792e-26), No Iterations 119
cMinus: -1.15888e-09 .  Bounding.
maxResidual = 0.00879428

ExecutionTime = 25.76 s  ClockTime = 26 s

Time = 240

         Steady solver/PNP-NS Iteration      # 1
BiCGStab:  Solving for PNP, Initial residual = (0.0044081 0.0068469 7.38482e-15), Final residual = (2.84387e-26 4.32684e-26 7.73326e-26), No Iterations 118
maxResidual = 0.0068469

ExecutionTime = 25.87 s  ClockTime = 27 s

Time = 241

         Steady solver/PNP-NS Iteration      # 1
BiCGStab:  Solving for PNP, Initial residual = (0.00596602 0.00863758 9.79759e-15), Final residual = (2.26281e-26 3.44789e-26 6.26008e-26), No Iterations 123
cMinus: -1.01433e-09 .  Bounding.
maxResidual = 0.00863758

ExecutionTime = 25.98 s  ClockTime = 27 s

Time = 242

         Steady solver/PNP-NS Iteration      # 1
BiCGStab:  Solving for PNP, Initial residual = (0.0043465 0.00675158 7.65491e-15), Final residual = (3.00232e-26 4.57858e-26 8.13543e-26), No Iterations 117
maxResidual = 0.00675158

ExecutionTime = 26.09 s  ClockTime = 27 s

Time = 243

         Steady solver/PNP-NS Iteration      # 1
BiCGStab:  Solving for PNP, Initial residual = (0.00586207 0.00848525 9.52379e-15), Final residual = (2.73689e-26 4.16868e-26 7.82463e-26), No Iterations 122
cMinus: -1.21737e-09 .  Bounding.
maxResidual = 0.00848525

ExecutionTime = 26.2 s  ClockTime = 27 s

Time = 244

         Steady solver/PNP-NS Iteration      # 1
BiCGStab:  Solving for PNP, Initial residual = (0.00428619 0.00665826 7.4558e-15), Final residual = (9.03668e-27 1.3761e-26 2.44715e-26), No Iterations 121
maxResidual = 0.00665826

ExecutionTime = 26.32 s  ClockTime = 27 s

Time = 245

         Steady solver/PNP-NS Iteration      # 1
BiCGStab:  Solving for PNP, Initial residual = (0.00576101 0.00833713 9.15824e-15), Final residual = (1.28507e-26 1.971e-26 3.52929e-26), No Iterations 125
cMinus: -1.25761e-09 .  Bounding.
maxResidual = 0.00833713

ExecutionTime = 26.44 s  ClockTime = 27 s

Time = 246

         Steady solver/PNP-NS Iteration      # 1
BiCGStab:  Solving for PNP, Initial residual = (0.00422715 0.00656688 7.4765e-15), Final residual = (2.74203e-27 4.17298e-27 8.04414e-27), No Iterations 121
maxResidual = 0.00656688

ExecutionTime = 26.55 s  ClockTime = 27 s

Time = 247

         Steady solver/PNP-NS Iteration      # 1
BiCGStab:  Solving for PNP, Initial residual = (0.00566273 0.00819311 9.34216e-15), Final residual = (3.01523e-26 4.59788e-26 8.22129e-26), No Iterations 119
cMinus: -1.18176e-09 .  Bounding.
maxResidual = 0.00819311

ExecutionTime = 26.66 s  ClockTime = 27 s

Time = 248

         Steady solver/PNP-NS Iteration      # 1
BiCGStab:  Solving for PNP, Initial residual = (0.00416934 0.00647742 7.61821e-15), Final residual = (2.59602e-26 3.95937e-26 7.29859e-26), No Iterations 117
maxResidual = 0.00647742

ExecutionTime = 26.77 s  ClockTime = 28 s

Time = 249

         Steady solver/PNP-NS Iteration      # 1
BiCGStab:  Solving for PNP, Initial residual = (0.00556714 0.00805322 9.36646e-15), Final residual = (2.63785e-26 4.01534e-26 7.53945e-26), No Iterations 120
cMinus: -1.05575e-09 .  Bounding.
maxResidual = 0.00805322

ExecutionTime = 26.88 s  ClockTime = 28 s

Time = 250

         Steady solver/PNP-NS Iteration      # 1
BiCGStab:  Solving for PNP, Initial residual = (0.00411274 0.00638981 7.73232e-15), Final residual = (2.78579e-26 4.2477e-26 7.67077e-26), No Iterations 117
maxResidual = 0.00638981

ExecutionTime = 27 s  ClockTime = 28 s

Time = 251

         Steady solver/PNP-NS Iteration      # 1
BiCGStab:  Solving for PNP, Initial residual = (0.00547414 0.00791708 9.11439e-15), Final residual = (2.85261e-26 4.34642e-26 8.11596e-26), No Iterations 115
cMinus: -1.00553e-09 .  Bounding.
maxResidual = 0.00791708

ExecutionTime = 27.11 s  ClockTime = 28 s

Time = 252

         Steady solver/PNP-NS Iteration      # 1
BiCGStab:  Solving for PNP, Initial residual = (0.00405731 0.00630404 7.24341e-15), Final residual = (2.0067e-26 3.05464e-26 6.06896e-26), No Iterations 112
maxResidual = 0.00630404

ExecutionTime = 27.21 s  ClockTime = 28 s

Time = 253

         Steady solver/PNP-NS Iteration      # 1
BiCGStab:  Solving for PNP, Initial residual = (0.00538365 0.0077846 9.05263e-15), Final residual = (7.61444e-28 1.16916e-27 2.18575e-27), No Iterations 121
cMinus: -1.1614e-09 .  Bounding.
maxResidual = 0.0077846

ExecutionTime = 27.32 s  ClockTime = 28 s

Time = 254

         Steady solver/PNP-NS Iteration      # 1
BiCGStab:  Solving for PNP, Initial residual = (0.00400303 0.00622004 7.06766e-15), Final residual = (1.90469e-26 2.90528e-26 5.20485e-26), No Iterations 122
maxResidual = 0.00622004

ExecutionTime = 27.44 s  ClockTime = 28 s

Time = 255

         Steady solver/PNP-NS Iteration      # 1
BiCGStab:  Solving for PNP, Initial residual = (0.00529557 0.00765566 9.31145e-15), Final residual = (2.5901e-26 3.94988e-26 7.08753e-26), No Iterations 120
cMinus: -1.16088e-09 .  Bounding.
maxResidual = 0.00765566

ExecutionTime = 27.55 s  ClockTime = 28 s

Time = 256

         Steady solver/PNP-NS Iteration      # 1
BiCGStab:  Solving for PNP, Initial residual = (0.00394988 0.00613777 7.2567e-15), Final residual = (1.02381e-26 1.55966e-26 2.95432e-26), No Iterations 121
maxResidual = 0.00613777

ExecutionTime = 27.66 s  ClockTime = 28 s

Time = 257

         Steady solver/PNP-NS Iteration      # 1
BiCGStab:  Solving for PNP, Initial residual = (0.00520983 0.00753022 8.98571e-15), Final residual = (1.92774e-26 2.94199e-26 5.63871e-26), No Iterations 122
cMinus: -1.08107e-09 .  Bounding.
maxResidual = 0.00753022

ExecutionTime = 27.77 s  ClockTime = 29 s

Time = 258

         Steady solver/PNP-NS Iteration      # 1
BiCGStab:  Solving for PNP, Initial residual = (0.00389782 0.00605718 7.17264e-15), Final residual = (2.65084e-26 3.98767e-26 7.72375e-26), No Iterations 119
maxResidual = 0.00605718

ExecutionTime = 27.89 s  ClockTime = 29 s

Time = 259

         Steady solver/PNP-NS Iteration      # 1
BiCGStab:  Solving for PNP, Initial residual = (0.00512635 0.00740817 8.81333e-15), Final residual = (2.7966e-27 4.24607e-27 7.96265e-27), No Iterations 125
cMinus: -9.67018e-10 .  Bounding.
maxResidual = 0.00740817

ExecutionTime = 28 s  ClockTime = 29 s

Time = 260

         Steady solver/PNP-NS Iteration      # 1
BiCGStab:  Solving for PNP, Initial residual = (0.00384683 0.00597825 7.47505e-15), Final residual = (1.23523e-26 1.88008e-26 3.71138e-26), No Iterations 112
maxResidual = 0.00597825

ExecutionTime = 28.12 s  ClockTime = 29 s

Time = 261

         Steady solver/PNP-NS Iteration      # 1
BiCGStab:  Solving for PNP, Initial residual = (0.00504504 0.00728927 9.17428e-15), Final residual = (2.37806e-26 3.62613e-26 6.58239e-26), No Iterations 121
cMinus: -8.43747e-10 .  Bounding.
maxResidual = 0.00728927

ExecutionTime = 28.23 s  ClockTime = 29 s

Time = 262

         Steady solver/PNP-NS Iteration      # 1
BiCGStab:  Solving for PNP, Initial residual = (0.00379688 0.00590094 7.1966e-15), Final residual = (1.34752e-26 2.05339e-26 3.75349e-26), No Iterations 120
maxResidual = 0.00590094

ExecutionTime = 28.34 s  ClockTime = 29 s

Time = 263

         Steady solver/PNP-NS Iteration      # 1
BiCGStab:  Solving for PNP, Initial residual = (0.00496582 0.00717342 8.94727e-15), Final residual = (1.65837e-26 2.52594e-26 4.82476e-26), No Iterations 112
cMinus: -1.00299e-09 .  Bounding.
maxResidual = 0.00717342

ExecutionTime = 28.44 s  ClockTime = 29 s

Time = 264

         Steady solver/PNP-NS Iteration      # 1
BiCGStab:  Solving for PNP, Initial residual = (0.00374794 0.00582519 7.23542e-15), Final residual = (1.1562e-26 1.7602e-26 3.49075e-26), No Iterations 119
maxResidual = 0.00582519

ExecutionTime = 28.56 s  ClockTime = 29 s

Time = 265

         Steady solver/PNP-NS Iteration      # 1
BiCGStab:  Solving for PNP, Initial residual = (0.00488864 0.00706054 9.06049e-15), Final residual = (2.73335e-26 4.16762e-26 7.51365e-26), No Iterations 115
cMinus: -1.0264e-09 .  Bounding.
maxResidual = 0.00706054

ExecutionTime = 28.67 s  ClockTime = 29 s

Time = 266

         Steady solver/PNP-NS Iteration      # 1
BiCGStab:  Solving for PNP, Initial residual = (0.0037 0.00575096 7.24172e-15), Final residual = (2.49041e-26 3.79723e-26 6.89795e-26), No Iterations 114
maxResidual = 0.00575096

ExecutionTime = 28.77 s  ClockTime = 30 s

Time = 267

         Steady solver/PNP-NS Iteration      # 1
BiCGStab:  Solving for PNP, Initial residual = (0.00481342 0.00695062 8.88845e-15), Final residual = (1.78576e-26 2.72227e-26 4.99901e-26), No Iterations 120
cMinus: -9.76266e-10 .  Bounding.
maxResidual = 0.00695062

ExecutionTime = 28.89 s  ClockTime = 30 s

Time = 268

         Steady solver/PNP-NS Iteration      # 1
BiCGStab:  Solving for PNP, Initial residual = (0.00365302 0.00567823 7.04381e-15), Final residual = (2.14639e-26 3.27442e-26 5.99843e-26), No Iterations 116
maxResidual = 0.00567823

ExecutionTime = 29 s  ClockTime = 30 s

Time = 269

         Steady solver/PNP-NS Iteration      # 1
BiCGStab:  Solving for PNP, Initial residual = (0.00474009 0.00684355 9.01748e-15), Final residual = (2.35175e-26 3.5945e-26 6.73022e-26), No Iterations 111
cMinus: -8.90399e-10 .  Bounding.
maxResidual = 0.00684355

ExecutionTime = 29.09 s  ClockTime = 30 s

Time = 270

         Steady solver/PNP-NS Iteration      # 1
[...]
maxResidual = 3.06184e-05

ExecutionTime = 198.67 s  ClockTime = 203 s

Time = 1933

         Steady solver/PNP-NS Iteration      # 1
BiCGStab:  Solving for PNP, Initial residual = (2.11397e-05 2.95889e-05 5.77684e-15), Final residual = (8.41092e-27 1.28002e-26 7.58617e-26), No Iterations 98
maxResidual = 2.95889e-05

ExecutionTime = 198.76 s  ClockTime = 203 s

Time = 1934

         Steady solver/PNP-NS Iteration      # 1
BiCGStab:  Solving for PNP, Initial residual = (2.02288e-05 3.04674e-05 5.85615e-15), Final residual = (9.6423e-27 1.46837e-26 8.27006e-26), No Iterations 98
maxResidual = 3.04674e-05

ExecutionTime = 198.85 s  ClockTime = 203 s

Time = 1935

         Steady solver/PNP-NS Iteration      # 1
BiCGStab:  Solving for PNP, Initial residual = (2.10355e-05 2.94435e-05 5.91548e-15), Final residual = (5.78425e-27 8.77772e-27 5.88223e-26), No Iterations 97
maxResidual = 2.94435e-05

ExecutionTime = 198.94 s  ClockTime = 203 s

Time = 1936

         Steady solver/PNP-NS Iteration      # 1
BiCGStab:  Solving for PNP, Initial residual = (2.01301e-05 3.03171e-05 5.83955e-15), Final residual = (6.41761e-27 9.74425e-27 6.54862e-26), No Iterations 97
maxResidual = 3.03171e-05

ExecutionTime = 199.03 s  ClockTime = 204 s

Time = 1937

         Steady solver/PNP-NS Iteration      # 1
BiCGStab:  Solving for PNP, Initial residual = (2.09319e-05 2.92989e-05 5.9015e-15), Final residual = (6.54541e-27 9.93334e-27 7.70463e-26), No Iterations 100
maxResidual = 2.92989e-05

ExecutionTime = 199.13 s  ClockTime = 204 s

Time = 1938

         Steady solver/PNP-NS Iteration      # 1
BiCGStab:  Solving for PNP, Initial residual = (2.0032e-05 3.01675e-05 5.96023e-15), Final residual = (1.66142e-27 2.52756e-27 1.48022e-26), No Iterations 100
maxResidual = 3.01675e-05

ExecutionTime = 199.23 s  ClockTime = 204 s

Time = 1939

         Steady solver/PNP-NS Iteration      # 1
BiCGStab:  Solving for PNP, Initial residual = (2.08287e-05 2.9155e-05 5.80027e-15), Final residual = (8.53112e-27 1.29739e-26 8.21367e-26), No Iterations 98
maxResidual = 2.9155e-05

ExecutionTime = 199.33 s  ClockTime = 204 s

Time = 1940

         Steady solver/PNP-NS Iteration      # 1
BiCGStab:  Solving for PNP, Initial residual = (1.99343e-05 3.00187e-05 5.8878e-15), Final residual = (3.38532e-27 5.15043e-27 3.20178e-26), No Iterations 100
maxResidual = 3.00187e-05

ExecutionTime = 199.43 s  ClockTime = 204 s

Time = 1941

         Steady solver/PNP-NS Iteration      # 1
BiCGStab:  Solving for PNP, Initial residual = (2.07261e-05 2.90118e-05 5.78011e-15), Final residual = (1.5182e-27 2.29257e-27 1.99235e-26), No Iterations 98
maxResidual = 2.90118e-05

ExecutionTime = 199.52 s  ClockTime = 204 s

Time = 1942

         Steady solver/PNP-NS Iteration      # 1
BiCGStab:  Solving for PNP, Initial residual = (1.98371e-05 2.98707e-05 5.88173e-15), Final residual = (5.34618e-27 8.12155e-27 5.19519e-26), No Iterations 100
maxResidual = 2.98707e-05

ExecutionTime = 199.62 s  ClockTime = 204 s

Time = 1943

         Steady solver/PNP-NS Iteration      # 1
BiCGStab:  Solving for PNP, Initial residual = (2.0624e-05 2.88694e-05 5.81543e-15), Final residual = (6.79677e-27 1.02947e-26 7.39192e-26), No Iterations 98
maxResidual = 2.88694e-05

ExecutionTime = 199.72 s  ClockTime = 204 s

Time = 1944

         Steady solver/PNP-NS Iteration      # 1
BiCGStab:  Solving for PNP, Initial residual = (1.97403e-05 2.97234e-05 5.82498e-15), Final residual = (6.37039e-27 9.692e-27 5.83663e-26), No Iterations 100
maxResidual = 2.97234e-05

ExecutionTime = 199.81 s  ClockTime = 204 s

Time = 1945

         Steady solver/PNP-NS Iteration      # 1
BiCGStab:  Solving for PNP, Initial residual = (2.05224e-05 2.87276e-05 5.93348e-15), Final residual = (8.3804e-27 1.27286e-26 9.62269e-26), No Iterations 99
maxResidual = 2.87276e-05

ExecutionTime = 199.9 s  ClockTime = 204 s

Time = 1946

         Steady solver/PNP-NS Iteration      # 1
BiCGStab:  Solving for PNP, Initial residual = (1.96441e-05 2.95769e-05 5.77767e-15), Final residual = (8.40464e-27 1.27795e-26 7.64766e-26), No Iterations 99
maxResidual = 2.95769e-05

ExecutionTime = 200 s  ClockTime = 204 s

Time = 1947

         Steady solver/PNP-NS Iteration      # 1
BiCGStab:  Solving for PNP, Initial residual = (2.04213e-05 2.85866e-05 5.91205e-15), Final residual = (5.99367e-27 9.11977e-27 5.38446e-26), No Iterations 100
maxResidual = 2.85866e-05

ExecutionTime = 200.09 s  ClockTime = 205 s

Time = 1948

         Steady solver/PNP-NS Iteration      # 1
BiCGStab:  Solving for PNP, Initial residual = (1.95484e-05 2.94311e-05 5.74916e-15), Final residual = (6.3636e-27 9.65904e-27 6.29924e-26), No Iterations 99
maxResidual = 2.94311e-05

ExecutionTime = 200.18 s  ClockTime = 205 s

Time = 1949

         Steady solver/PNP-NS Iteration      # 1
BiCGStab:  Solving for PNP, Initial residual = (2.03207e-05 2.84463e-05 5.83677e-15), Final residual = (2.60184e-27 3.95511e-27 2.43112e-26), No Iterations 100
maxResidual = 2.84463e-05

ExecutionTime = 200.27 s  ClockTime = 205 s

Time = 1950

         Steady solver/PNP-NS Iteration      # 1
BiCGStab:  Solving for PNP, Initial residual = (1.94531e-05 2.9286e-05 5.82071e-15), Final residual = (7.73417e-27 1.17581e-26 7.64155e-26), No Iterations 98
maxResidual = 2.9286e-05

ExecutionTime = 200.38 s  ClockTime = 205 s

Time = 1951

         Steady solver/PNP-NS Iteration      # 1
BiCGStab:  Solving for PNP, Initial residual = (2.02206e-05 2.83068e-05 5.86417e-15), Final residual = (4.80292e-27 7.28008e-27 5.17881e-26), No Iterations 97
maxResidual = 2.83068e-05

ExecutionTime = 200.47 s  ClockTime = 205 s

Time = 1952

         Steady solver/PNP-NS Iteration      # 1
BiCGStab:  Solving for PNP, Initial residual = (1.93583e-05 2.91417e-05 5.83484e-15), Final residual = (2.68733e-27 4.09048e-27 2.29913e-26), No Iterations 100
maxResidual = 2.91417e-05

ExecutionTime = 200.57 s  ClockTime = 205 s

Time = 1953

         Steady solver/PNP-NS Iteration      # 1
BiCGStab:  Solving for PNP, Initial residual = (2.01211e-05 2.81679e-05 5.87478e-15), Final residual = (8.63494e-27 1.31372e-26 7.84365e-26), No Iterations 99
maxResidual = 2.81679e-05

ExecutionTime = 200.67 s  ClockTime = 205 s

Time = 1954

         Steady solver/PNP-NS Iteration      # 1
BiCGStab:  Solving for PNP, Initial residual = (1.9264e-05 2.89981e-05 5.78161e-15), Final residual = (3.10385e-27 4.71138e-27 3.4341e-26), No Iterations 99
maxResidual = 2.89981e-05

ExecutionTime = 200.76 s  ClockTime = 205 s

Time = 1955

         Steady solver/PNP-NS Iteration      # 1
BiCGStab:  Solving for PNP, Initial residual = (2.0022e-05 2.80297e-05 5.83201e-15), Final residual = (7.08708e-27 1.07519e-26 7.47777e-26), No Iterations 100
maxResidual = 2.80297e-05

ExecutionTime = 200.85 s  ClockTime = 205 s

Time = 1956

         Steady solver/PNP-NS Iteration      # 1
BiCGStab:  Solving for PNP, Initial residual = (1.91702e-05 2.88552e-05 5.8797e-15), Final residual = (2.86796e-27 4.33246e-27 2.78862e-26), No Iterations 100
maxResidual = 2.88552e-05

ExecutionTime = 200.95 s  ClockTime = 205 s

Time = 1957

         Steady solver/PNP-NS Iteration      # 1
BiCGStab:  Solving for PNP, Initial residual = (1.99234e-05 2.78922e-05 5.82072e-15), Final residual = (7.98346e-27 1.21168e-26 8.24179e-26), No Iterations 99
maxResidual = 2.78922e-05

ExecutionTime = 201.04 s  ClockTime = 206 s

Time = 1958

         Steady solver/PNP-NS Iteration      # 1
BiCGStab:  Solving for PNP, Initial residual = (1.90768e-05 2.8713e-05 6.07082e-15), Final residual = (3.60826e-27 5.4384e-27 3.83775e-26), No Iterations 99
maxResidual = 2.8713e-05

ExecutionTime = 201.14 s  ClockTime = 206 s

Time = 1959

         Steady solver/PNP-NS Iteration      # 1
BiCGStab:  Solving for PNP, Initial residual = (1.98254e-05 2.77555e-05 5.89083e-15), Final residual = (4.97764e-27 7.57201e-27 4.52393e-26), No Iterations 99
maxResidual = 2.77555e-05

ExecutionTime = 201.23 s  ClockTime = 206 s

Time = 1960

         Steady solver/PNP-NS Iteration      # 1
BiCGStab:  Solving for PNP, Initial residual = (1.89839e-05 2.85716e-05 5.86268e-15), Final residual = (3.73483e-27 5.68508e-27 3.29274e-26), No Iterations 99
maxResidual = 2.85716e-05

ExecutionTime = 201.34 s  ClockTime = 206 s

Time = 1961

         Steady solver/PNP-NS Iteration      # 1
BiCGStab:  Solving for PNP, Initial residual = (1.97278e-05 2.76194e-05 5.76714e-15), Final residual = (5.28017e-27 7.93947e-27 8.37007e-26), No Iterations 101
maxResidual = 2.76194e-05

ExecutionTime = 201.44 s  ClockTime = 206 s

Time = 1962

         Steady solver/PNP-NS Iteration      # 1
BiCGStab:  Solving for PNP, Initial residual = (1.88914e-05 2.84309e-05 5.77086e-15), Final residual = (7.48335e-27 1.13681e-26 7.39922e-26), No Iterations 98
maxResidual = 2.84309e-05

ExecutionTime = 201.53 s  ClockTime = 206 s

Time = 1963

         Steady solver/PNP-NS Iteration      # 1
BiCGStab:  Solving for PNP, Initial residual = (1.96307e-05 2.7484e-05 5.90683e-15), Final residual = (5.53917e-27 8.409e-27 5.37979e-26), No Iterations 97
maxResidual = 2.7484e-05

ExecutionTime = 201.62 s  ClockTime = 206 s

Time = 1964

         Steady solver/PNP-NS Iteration      # 1
BiCGStab:  Solving for PNP, Initial residual = (1.87994e-05 2.82908e-05 5.80838e-15), Final residual = (6.42143e-27 9.72253e-27 7.45026e-26), No Iterations 97
maxResidual = 2.82908e-05

ExecutionTime = 201.71 s  ClockTime = 206 s

Time = 1965

         Steady solver/PNP-NS Iteration      # 1
BiCGStab:  Solving for PNP, Initial residual = (1.95341e-05 2.73493e-05 5.77336e-15), Final residual = (3.91051e-27 5.94546e-27 4.03798e-26), No Iterations 98
maxResidual = 2.73493e-05

ExecutionTime = 201.8 s  ClockTime = 206 s

Time = 1966

         Steady solver/PNP-NS Iteration      # 1
BiCGStab:  Solving for PNP, Initial residual = (1.87079e-05 2.81515e-05 5.70285e-15), Final residual = (4.49261e-27 6.82946e-27 4.41521e-26), No Iterations 98
maxResidual = 2.81515e-05

ExecutionTime = 201.9 s  ClockTime = 206 s

Time = 1967

         Steady solver/PNP-NS Iteration      # 1
BiCGStab:  Solving for PNP, Initial residual = (1.9438e-05 2.72153e-05 5.6711e-15), Final residual = (9.73506e-27 1.47876e-26 8.95805e-26), No Iterations 98
maxResidual = 2.72153e-05

ExecutionTime = 201.99 s  ClockTime = 207 s

Time = 1968

         Steady solver/PNP-NS Iteration      # 1
BiCGStab:  Solving for PNP, Initial residual = (1.86169e-05 2.80129e-05 5.97053e-15), Final residual = (9.8032e-27 1.49179e-26 8.69326e-26), No Iterations 98
maxResidual = 2.80129e-05

ExecutionTime = 202.08 s  ClockTime = 207 s

Time = 1969

         Steady solver/PNP-NS Iteration      # 1
BiCGStab:  Solving for PNP, Initial residual = (1.93424e-05 2.70819e-05 5.77636e-15), Final residual = (2.23707e-27 3.39728e-27 2.5829e-26), No Iterations 101
maxResidual = 2.70819e-05

ExecutionTime = 202.18 s  ClockTime = 207 s

Time = 1970

         Steady solver/PNP-NS Iteration      # 1
BiCGStab:  Solving for PNP, Initial residual = (1.85263e-05 2.7875e-05 5.73924e-15), Final residual = (3.48291e-27 5.28246e-27 3.99138e-26), No Iterations 99
maxResidual = 2.7875e-05

ExecutionTime = 202.28 s  ClockTime = 207 s

Time = 1971

         Steady solver/PNP-NS Iteration      # 1
BiCGStab:  Solving for PNP, Initial residual = (1.92473e-05 2.69493e-05 5.74318e-15), Final residual = (7.56895e-27 1.15257e-26 6.30006e-26), No Iterations 99
maxResidual = 2.69493e-05

ExecutionTime = 202.38 s  ClockTime = 207 s

Time = 1972

         Steady solver/PNP-NS Iteration      # 1
BiCGStab:  Solving for PNP, Initial residual = (1.84361e-05 2.77378e-05 5.92665e-15), Final residual = (1.78799e-27 2.70583e-27 2.12781e-26), No Iterations 99
maxResidual = 2.77378e-05

ExecutionTime = 202.47 s  ClockTime = 207 s

Time = 1973

         Steady solver/PNP-NS Iteration      # 1
BiCGStab:  Solving for PNP, Initial residual = (1.91526e-05 2.68173e-05 5.85578e-15), Final residual = (5.69858e-27 8.65842e-27 6.0479e-26), No Iterations 99
maxResidual = 2.68173e-05

ExecutionTime = 202.57 s  ClockTime = 207 s

Time = 1974

         Steady solver/PNP-NS Iteration      # 1
BiCGStab:  Solving for PNP, Initial residual = (1.83464e-05 2.76013e-05 5.87e-15), Final residual = (6.07776e-27 9.24171e-27 6.19982e-26), No Iterations 99
maxResidual = 2.76013e-05

ExecutionTime = 202.66 s  ClockTime = 207 s

Time = 1975

         Steady solver/PNP-NS Iteration      # 1
BiCGStab:  Solving for PNP, Initial residual = (1.90584e-05 2.6686e-05 5.65333e-15), Final residual = (8.06404e-27 1.22571e-26 8.53337e-26), No Iterations 99
maxResidual = 2.6686e-05

ExecutionTime = 202.76 s  ClockTime = 207 s

Time = 1976

         Steady solver/PNP-NS Iteration      # 1
BiCGStab:  Solving for PNP, Initial residual = (1.82571e-05 2.74654e-05 5.93513e-15), Final residual = (3.84182e-27 5.81601e-27 4.83109e-26), No Iterations 100
maxResidual = 2.74654e-05

ExecutionTime = 202.85 s  ClockTime = 207 s

Time = 1977

         Steady solver/PNP-NS Iteration      # 1
BiCGStab:  Solving for PNP, Initial residual = (1.89647e-05 2.65553e-05 5.85212e-15), Final residual = (7.06562e-27 1.07214e-26 7.27952e-26), No Iterations 99
maxResidual = 2.65553e-05

ExecutionTime = 202.94 s  ClockTime = 208 s

Time = 1978

         Steady solver/PNP-NS Iteration      # 1
BiCGStab:  Solving for PNP, Initial residual = (1.81683e-05 2.73303e-05 5.75937e-15), Final residual = (8.12409e-27 1.23612e-26 7.33743e-26), No Iterations 98
maxResidual = 2.73303e-05

ExecutionTime = 203.03 s  ClockTime = 208 s

Time = 1979

         Steady solver/PNP-NS Iteration      # 1
BiCGStab:  Solving for PNP, Initial residual = (1.88715e-05 2.64253e-05 5.86397e-15), Final residual = (6.59096e-27 9.98576e-27 7.48792e-26), No Iterations 100
maxResidual = 2.64253e-05

ExecutionTime = 203.13 s  ClockTime = 208 s

Time = 1980

         Steady solver/PNP-NS Iteration      # 1
BiCGStab:  Solving for PNP, Initial residual = (1.808e-05 2.71958e-05 5.74654e-15), Final residual = (6.02275e-27 9.14988e-27 6.45038e-26), No Iterations 101
maxResidual = 2.71958e-05

ExecutionTime = 203.24 s  ClockTime = 208 s

Time = 1981

         Steady solver/PNP-NS Iteration      # 1
BiCGStab:  Solving for PNP, Initial residual = (1.87787e-05 2.6296e-05 5.84359e-15), Final residual = (7.84631e-27 1.19182e-26 8.58254e-26), No Iterations 99
maxResidual = 2.6296e-05

ExecutionTime = 203.33 s  ClockTime = 208 s

Time = 1982

         Steady solver/PNP-NS Iteration      # 1
BiCGStab:  Solving for PNP, Initial residual = (1.7992e-05 2.7062e-05 5.86926e-15), Final residual = (6.61494e-27 1.00555e-26 6.41582e-26), No Iterations 101
maxResidual = 2.7062e-05

ExecutionTime = 203.43 s  ClockTime = 208 s

Time = 1983

         Steady solver/PNP-NS Iteration      # 1
BiCGStab:  Solving for PNP, Initial residual = (1.86864e-05 2.61673e-05 5.695e-15), Final residual = (5.96116e-27 9.07244e-27 5.40209e-26), No Iterations 100
maxResidual = 2.61673e-05

ExecutionTime = 203.52 s  ClockTime = 208 s

Time = 1984

         Steady solver/PNP-NS Iteration      # 1
BiCGStab:  Solving for PNP, Initial residual = (1.79046e-05 2.69288e-05 5.85955e-15), Final residual = (7.64916e-27 1.16334e-26 6.94273e-26), No Iterations 96
maxResidual = 2.69288e-05

ExecutionTime = 203.62 s  ClockTime = 208 s

Time = 1985

         Steady solver/PNP-NS Iteration      # 1
BiCGStab:  Solving for PNP, Initial residual = (1.85946e-05 2.60392e-05 5.62692e-15), Final residual = (4.46347e-27 6.78403e-27 4.33426e-26), No Iterations 99
maxResidual = 2.60392e-05

ExecutionTime = 203.71 s  ClockTime = 208 s

Time = 1986

         Steady solver/PNP-NS Iteration      # 1
BiCGStab:  Solving for PNP, Initial residual = (1.78175e-05 2.67964e-05 5.85797e-15), Final residual = (5.16743e-27 7.85723e-27 5.05162e-26), No Iterations 99
maxResidual = 2.67964e-05

ExecutionTime = 203.8 s  ClockTime = 208 s

Time = 1987

         Steady solver/PNP-NS Iteration      # 1
BiCGStab:  Solving for PNP, Initial residual = (1.85032e-05 2.59118e-05 5.72889e-15), Final residual = (8.29169e-27 1.2613e-26 7.62007e-26), No Iterations 98
maxResidual = 2.59118e-05

ExecutionTime = 203.89 s  ClockTime = 208 s

Time = 1988

         Steady solver/PNP-NS Iteration      # 1
BiCGStab:  Solving for PNP, Initial residual = (1.77309e-05 2.66646e-05 5.82255e-15), Final residual = (6.83194e-27 1.03747e-26 7.6813e-26), No Iterations 99
maxResidual = 2.66646e-05

ExecutionTime = 203.98 s  ClockTime = 209 s

Time = 1989

         Steady solver/PNP-NS Iteration      # 1
BiCGStab:  Solving for PNP, Initial residual = (1.84123e-05 2.57851e-05 5.91421e-15), Final residual = (8.31411e-28 1.25779e-27 9.53593e-27), No Iterations 99
maxResidual = 2.57851e-05

ExecutionTime = 204.08 s  ClockTime = 209 s

Time = 1990

         Steady solver/PNP-NS Iteration      # 1
BiCGStab:  Solving for PNP, Initial residual = (1.76447e-05 2.65335e-05 5.94427e-15), Final residual = (6.91515e-27 1.05091e-26 7.10279e-26), No Iterations 98
maxResidual = 2.65335e-05

ExecutionTime = 204.18 s  ClockTime = 209 s

Time = 1991

         Steady solver/PNP-NS Iteration      # 1
BiCGStab:  Solving for PNP, Initial residual = (1.83218e-05 2.5659e-05 5.88896e-15), Final residual = (4.12996e-27 6.21535e-27 6.05207e-26), No Iterations 98
maxResidual = 2.5659e-05

ExecutionTime = 204.28 s  ClockTime = 209 s

Time = 1992

         Steady solver/PNP-NS Iteration      # 1
BiCGStab:  Solving for PNP, Initial residual = (1.7559e-05 2.6403e-05 5.94656e-15), Final residual = (2.66619e-27 4.04503e-27 3.1143e-26), No Iterations 99
maxResidual = 2.6403e-05

ExecutionTime = 204.37 s  ClockTime = 209 s

Time = 1993

         Steady solver/PNP-NS Iteration      # 1
BiCGStab:  Solving for PNP, Initial residual = (1.82318e-05 2.55335e-05 5.75298e-15), Final residual = (7.75652e-27 1.17996e-26 6.9387e-26), No Iterations 99
maxResidual = 2.55335e-05

ExecutionTime = 204.47 s  ClockTime = 209 s

Time = 1994

         Steady solver/PNP-NS Iteration      # 1
BiCGStab:  Solving for PNP, Initial residual = (1.74736e-05 2.62732e-05 5.87335e-15), Final residual = (8.86562e-27 1.34536e-26 9.41846e-26), No Iterations 98
maxResidual = 2.62732e-05

ExecutionTime = 204.56 s  ClockTime = 209 s

Time = 1995

         Steady solver/PNP-NS Iteration      # 1
BiCGStab:  Solving for PNP, Initial residual = (1.81423e-05 2.54087e-05 5.82545e-15), Final residual = (2.79834e-27 4.24469e-27 3.28864e-26), No Iterations 99
maxResidual = 2.54087e-05

ExecutionTime = 204.66 s  ClockTime = 209 s

Time = 1996

         Steady solver/PNP-NS Iteration      # 1
BiCGStab:  Solving for PNP, Initial residual = (1.73887e-05 2.6144e-05 5.91422e-15), Final residual = (8.70278e-27 1.32442e-26 7.63871e-26), No Iterations 100
maxResidual = 2.6144e-05

ExecutionTime = 204.75 s  ClockTime = 209 s

Time = 1997

         Steady solver/PNP-NS Iteration      # 1
BiCGStab:  Solving for PNP, Initial residual = (1.80532e-05 2.52845e-05 5.66863e-15), Final residual = (6.87268e-27 1.04626e-26 6.00415e-26), No Iterations 99
maxResidual = 2.52845e-05

ExecutionTime = 204.85 s  ClockTime = 209 s

Time = 1998

         Steady solver/PNP-NS Iteration      # 1
BiCGStab:  Solving for PNP, Initial residual = (1.73043e-05 2.60155e-05 5.77912e-15), Final residual = (3.70706e-27 5.56281e-27 5.87649e-26), No Iterations 100
maxResidual = 2.60155e-05

ExecutionTime = 204.95 s  ClockTime = 210 s

Time = 1999

         Steady solver/PNP-NS Iteration      # 1
BiCGStab:  Solving for PNP, Initial residual = (1.79645e-05 2.51609e-05 5.69148e-15), Final residual = (7.96633e-27 1.20999e-26 8.87021e-26), No Iterations 98
maxResidual = 2.51609e-05

ExecutionTime = 205.04 s  ClockTime = 210 s

Time = 2000

         Steady solver/PNP-NS Iteration      # 1
BiCGStab:  Solving for PNP, Initial residual = (1.72202e-05 2.58876e-05 5.73545e-15), Final residual = (9.97878e-27 1.52035e-26 7.4296e-26), No Iterations 98
maxResidual = 2.58876e-05

ExecutionTime = 205.14 s  ClockTime = 210 s

End

