/*---------------------------------------------------------------------------*\
| =========                 |                                                 |
| \\      /  F ield         | foam-extend: Open Source CFD                    |
|  \\    /   O peration     | Version:     4.0                                |
|   \\  /    A nd           | Web:         http://www.foam-extend.org         |
|    \\/     M anipulation  | For copyright notice see file Copyright         |
\*---------------------------------------------------------------------------*/
Build    : 4.0-268bb07d15d8
Exec     : PNPnonDFoam
Date     : Mar 13 2024
Time     : 20:42:11
Host     : sh-Precision-7920-Tower
PID      : 6248
CtrlDict : "/media/sh/drive1/NextFoam/tutorials/Coupled/2D_example_steady_PNPnonD_analysis/2D_example_steady_PNPnonD_alpha09/system/controlDict"
Case     : /media/sh/drive1/NextFoam/tutorials/Coupled/2D_example_steady_PNPnonD_analysis/2D_example_steady_PNPnonD_alpha09
nProcs   : 1
SigFpe   : Enabling floating point exception trapping (FOAM_SIGFPE).

// * * * * * * * * * * * * * * * * * * * * * * * * * * * * * * * * * * * * * //
Create time

--> FOAM Warning : 
    From function dlLibraryTable::open(const fileName& functionLibName)
    in file db/dlLibraryTable/dlLibraryTable.C at line 124
    could not load libslipEOF.so: cannot open shared object file: No such file or directory
Create mesh for time = 0

Reading field psiE

Reading field psiI

Reading field cPlus

Reading field cMinus

Reading transportProperties

****************************************************************

Scale Parameters
****************************************************************
Average-diffusivity's value: 3.36e-09 [0 2 -1 0 0 0 0]
Time-scale's value: 0.0297619 [0 0 1 0 0 0 0]
Potential-scale's value: 0.025852 [1 2 -3 0 0 -1 0]
Velocity-scale's value: 4.73398e-05 [0 1 -1 0 0 0 0]
pressure-scale's value: 4.73398e-06 [0 2 -2 0 0 0 0]
Debye-Length's value: 9.74139e-09 [0 1 0 0 0 0 0]
Dimensionless diffusion coefficient DPlus_nonD: 0.395833
Dimensionless diffusion coefficient DMinus_nonD: 0.604167
Dimensionless Debye-Length: 0.000974139
Schmidt Number: 297.619
Reynold Number: 0.000473398
Pelec Number: 0.140892
****************************************************************
Reading field psiEGrad

Reading field phiE

Reading field DPlusphiE

Reading field DMinusphiE

Reading field phiDcPlus

Reading field phiDcMinus

Reading field netCharge

Creating field PNP


Starting time loop


Starting time loop

Time = 1

         Steady solver/PNP-NS Iteration      # 1
BiCGStab:  Solving for PNP, Initial residual = (0.450596 0.687752 0.569174), Final residual = (3.14803e-26 4.80429e-26 7.95176e-26), No Iterations 109
maxResidual = 0.687752

ExecutionTime = 0.19 s  ClockTime = 0 s

Time = 2

         Steady solver/PNP-NS Iteration      # 1
BiCGStab:  Solving for PNP, Initial residual = (0.0223223 0.0338558 4.37539e-15), Final residual = (2.17627e-26 3.3224e-26 5.49835e-26), No Iterations 106
maxResidual = 0.0338558

ExecutionTime = 0.3 s  ClockTime = 0 s

Time = 3

         Steady solver/PNP-NS Iteration      # 1
BiCGStab:  Solving for PNP, Initial residual = (0.229511 0.350196 3.83031e-14), Final residual = (2.92772e-26 4.4701e-26 7.39987e-26), No Iterations 108
maxResidual = 0.350196

ExecutionTime = 0.41 s  ClockTime = 1 s

Time = 4

         Steady solver/PNP-NS Iteration      # 1
BiCGStab:  Solving for PNP, Initial residual = (0.0215721 0.0331951 4.5833e-15), Final residual = (1.43727e-26 2.194e-26 3.63216e-26), No Iterations 109
maxResidual = 0.0331951

ExecutionTime = 0.53 s  ClockTime = 1 s

Time = 5

         Steady solver/PNP-NS Iteration      # 1
BiCGStab:  Solving for PNP, Initial residual = (0.193191 0.294071 3.28919e-14), Final residual = (1.24616e-26 1.90378e-26 3.1531e-26), No Iterations 116
maxResidual = 0.294071

ExecutionTime = 0.65 s  ClockTime = 1 s

Time = 6

         Steady solver/PNP-NS Iteration      # 1
BiCGStab:  Solving for PNP, Initial residual = (0.0211387 0.0326044 4.48941e-15), Final residual = (1.85786e-26 2.83602e-26 4.69728e-26), No Iterations 113
maxResidual = 0.0326044

ExecutionTime = 0.76 s  ClockTime = 1 s

Time = 7

         Steady solver/PNP-NS Iteration      # 1
BiCGStab:  Solving for PNP, Initial residual = (0.170314 0.259059 3.02289e-14), Final residual = (3.03627e-26 4.63528e-26 7.67825e-26), No Iterations 112
maxResidual = 0.259059

ExecutionTime = 0.88 s  ClockTime = 1 s

Time = 8

         Steady solver/PNP-NS Iteration      # 1
BiCGStab:  Solving for PNP, Initial residual = (0.0207722 0.0320753 4.50623e-15), Final residual = (1.24162e-26 1.89562e-26 3.14363e-26), No Iterations 107
maxResidual = 0.0320753

ExecutionTime = 0.99 s  ClockTime = 1 s

Time = 9

         Steady solver/PNP-NS Iteration      # 1
BiCGStab:  Solving for PNP, Initial residual = (0.153584 0.233455 2.83974e-14), Final residual = (2.46508e-26 3.7631e-26 6.23465e-26), No Iterations 108
maxResidual = 0.233455

ExecutionTime = 1.1 s  ClockTime = 1 s

Time = 10

         Steady solver/PNP-NS Iteration      # 1
BiCGStab:  Solving for PNP, Initial residual = (0.0204416 0.0315879 4.59812e-15), Final residual = (2.98085e-26 4.55021e-26 7.54192e-26), No Iterations 110
maxResidual = 0.0315879

ExecutionTime = 1.22 s  ClockTime = 1 s

Time = 11

         Steady solver/PNP-NS Iteration      # 1
BiCGStab:  Solving for PNP, Initial residual = (0.140456 0.213345 2.62453e-14), Final residual = (1.47605e-26 2.25697e-26 3.74047e-26), No Iterations 115
maxResidual = 0.213345

ExecutionTime = 1.34 s  ClockTime = 2 s

Time = 12

         Steady solver/PNP-NS Iteration      # 1
BiCGStab:  Solving for PNP, Initial residual = (0.0201349 0.0311309 4.57798e-15), Final residual = (1.01364e-26 1.54731e-26 2.56566e-26), No Iterations 109
maxResidual = 0.0311309

ExecutionTime = 1.44 s  ClockTime = 2 s

Time = 13

         Steady solver/PNP-NS Iteration      # 1
BiCGStab:  Solving for PNP, Initial residual = (0.129778 0.196873 2.47057e-14), Final residual = (1.47702e-26 2.25538e-26 3.74368e-26), No Iterations 114
maxResidual = 0.196873

ExecutionTime = 1.56 s  ClockTime = 2 s

Time = 14

         Steady solver/PNP-NS Iteration      # 1
BiCGStab:  Solving for PNP, Initial residual = (0.0198456 0.0306972 4.72035e-15), Final residual = (1.26322e-26 1.93835e-26 3.20359e-26), No Iterations 108
maxResidual = 0.0306972

ExecutionTime = 1.67 s  ClockTime = 2 s

Time = 15

         Steady solver/PNP-NS Iteration      # 1
BiCGStab:  Solving for PNP, Initial residual = (0.120866 0.182998 2.47551e-14), Final residual = (2.77682e-26 4.23951e-26 7.03491e-26), No Iterations 108
maxResidual = 0.182998

ExecutionTime = 1.78 s  ClockTime = 2 s

Time = 16

         Steady solver/PNP-NS Iteration      # 1
BiCGStab:  Solving for PNP, Initial residual = (0.0195705 0.0302823 4.54496e-15), Final residual = (1.63689e-26 2.49914e-26 4.15133e-26), No Iterations 109
maxResidual = 0.0302823

ExecutionTime = 1.89 s  ClockTime = 2 s

Time = 17

         Steady solver/PNP-NS Iteration      # 1
BiCGStab:  Solving for PNP, Initial residual = (0.113192 0.171075 2.30469e-14), Final residual = (7.93302e-27 1.21101e-26 2.00803e-26), No Iterations 111
maxResidual = 0.171075

ExecutionTime = 2 s  ClockTime = 2 s

Time = 18

         Steady solver/PNP-NS Iteration      # 1
BiCGStab:  Solving for PNP, Initial residual = (0.0193076 0.029884 4.76294e-15), Final residual = (2.07244e-26 3.19582e-26 5.26239e-26), No Iterations 112
maxResidual = 0.029884

ExecutionTime = 2.13 s  ClockTime = 2 s

Time = 19

         Steady solver/PNP-NS Iteration      # 1
BiCGStab:  Solving for PNP, Initial residual = (0.106479 0.160667 2.25232e-14), Final residual = (2.1305e-26 3.23099e-26 5.39849e-26), No Iterations 110
maxResidual = 0.160667

ExecutionTime = 2.24 s  ClockTime = 2 s

Time = 20

         Steady solver/PNP-NS Iteration      # 1
BiCGStab:  Solving for PNP, Initial residual = (0.0190547 0.0294995 4.77057e-15), Final residual = (2.96615e-26 4.67618e-26 7.612e-26), No Iterations 110
maxResidual = 0.0294995

ExecutionTime = 2.36 s  ClockTime = 3 s

Time = 21

         Steady solver/PNP-NS Iteration      # 1
BiCGStab:  Solving for PNP, Initial residual = (0.100535 0.151467 2.30015e-14), Final residual = (2.96054e-26 4.51971e-26 7.62852e-26), No Iterations 111
maxResidual = 0.151467

ExecutionTime = 2.47 s  ClockTime = 3 s

Time = 22

         Steady solver/PNP-NS Iteration      # 1
BiCGStab:  Solving for PNP, Initial residual = (0.0188104 0.0291267 4.95478e-15), Final residual = (9.71946e-27 1.48553e-26 2.43308e-26), No Iterations 113
maxResidual = 0.0291267

ExecutionTime = 2.58 s  ClockTime = 3 s

Time = 23

         Steady solver/PNP-NS Iteration      # 1
BiCGStab:  Solving for PNP, Initial residual = (0.095215 0.143252 2.13112e-14), Final residual = (1.12052e-26 1.71106e-26 3.39283e-26), No Iterations 116
maxResidual = 0.143252

ExecutionTime = 2.7 s  ClockTime = 3 s

Time = 24

         Steady solver/PNP-NS Iteration      # 1
BiCGStab:  Solving for PNP, Initial residual = (0.0185735 0.0287639 4.93507e-15), Final residual = (2.71923e-26 4.15419e-26 6.94136e-26), No Iterations 106
maxResidual = 0.0287639

ExecutionTime = 2.82 s  ClockTime = 3 s

Time = 25

         Steady solver/PNP-NS Iteration      # 1
BiCGStab:  Solving for PNP, Initial residual = (0.0904169 0.135851 2.21378e-14), Final residual = (2.70574e-26 4.13023e-26 6.85549e-26), No Iterations 116
maxResidual = 0.135851

ExecutionTime = 2.93 s  ClockTime = 3 s

Time = 26

         Steady solver/PNP-NS Iteration      # 1
BiCGStab:  Solving for PNP, Initial residual = (0.0183431 0.0284096 5.3094e-15), Final residual = (2.67465e-26 4.05777e-26 6.87894e-26), No Iterations 108
maxResidual = 0.0284096

ExecutionTime = 3.04 s  ClockTime = 3 s

Time = 27

         Steady solver/PNP-NS Iteration      # 1
BiCGStab:  Solving for PNP, Initial residual = (0.0860679 0.129134 2.13264e-14), Final residual = (2.81047e-26 4.29163e-26 7.21643e-26), No Iterations 109
maxResidual = 0.129134

ExecutionTime = 3.16 s  ClockTime = 3 s

Time = 28

         Steady solver/PNP-NS Iteration      # 1
BiCGStab:  Solving for PNP, Initial residual = (0.0181182 0.0280629 5.11364e-15), Final residual = (9.84733e-27 1.49893e-26 2.50581e-26), No Iterations 115
maxResidual = 0.0280629

ExecutionTime = 3.28 s  ClockTime = 4 s

Time = 29

         Steady solver/PNP-NS Iteration      # 1
BiCGStab:  Solving for PNP, Initial residual = (0.0820854 0.122997 2.06651e-14), Final residual = (2.19493e-26 3.33689e-26 5.53934e-26), No Iterations 115
maxResidual = 0.122997

ExecutionTime = 3.39 s  ClockTime = 4 s

Time = 30

         Steady solver/PNP-NS Iteration      # 1
BiCGStab:  Solving for PNP, Initial residual = (0.0178981 0.0277228 5.40126e-15), Final residual = (1.32566e-26 2.04011e-26 3.26979e-26), No Iterations 109
maxResidual = 0.0277228

ExecutionTime = 3.51 s  ClockTime = 4 s

Time = 31

         Steady solver/PNP-NS Iteration      # 1
BiCGStab:  Solving for PNP, Initial residual = (0.0784178 0.117359 2.09648e-14), Final residual = (2.66131e-26 4.03997e-26 6.71878e-26), No Iterations 116
maxResidual = 0.117359

ExecutionTime = 3.63 s  ClockTime = 4 s

Time = 32

         Steady solver/PNP-NS Iteration      # 1
BiCGStab:  Solving for PNP, Initial residual = (0.0176822 0.0273883 5.44773e-15), Final residual = (7.30332e-27 1.11716e-26 1.90011e-26), No Iterations 109
maxResidual = 0.0273883

ExecutionTime = 3.75 s  ClockTime = 4 s

Time = 33

         Steady solver/PNP-NS Iteration      # 1
BiCGStab:  Solving for PNP, Initial residual = (0.0750228 0.112151 2.08715e-14), Final residual = (1.56014e-26 2.38084e-26 3.97183e-26), No Iterations 115
maxResidual = 0.112151

ExecutionTime = 3.86 s  ClockTime = 4 s

Time = 34

         Steady solver/PNP-NS Iteration      # 1
BiCGStab:  Solving for PNP, Initial residual = (0.01747 0.0270589 5.7903e-15), Final residual = (2.65359e-26 4.04652e-26 6.7249e-26), No Iterations 108
maxResidual = 0.0270589

ExecutionTime = 3.97 s  ClockTime = 4 s

Time = 35

         Steady solver/PNP-NS Iteration      # 1
BiCGStab:  Solving for PNP, Initial residual = (0.0718657 0.107318 2.08698e-14), Final residual = (2.63474e-26 4.02251e-26 6.67854e-26), No Iterations 121
maxResidual = 0.107318

ExecutionTime = 4.09 s  ClockTime = 4 s

Time = 36

         Steady solver/PNP-NS Iteration      # 1
BiCGStab:  Solving for PNP, Initial residual = (0.017261 0.0267337 5.96075e-15), Final residual = (1.74964e-26 2.6666e-26 4.46659e-26), No Iterations 117
maxResidual = 0.0267337

ExecutionTime = 4.21 s  ClockTime = 4 s

Time = 37

         Steady solver/PNP-NS Iteration      # 1
BiCGStab:  Solving for PNP, Initial residual = (0.0689174 0.102815 2.01036e-14), Final residual = (4.13871e-27 6.35781e-27 1.05386e-26), No Iterations 117
maxResidual = 0.102815

ExecutionTime = 4.33 s  ClockTime = 5 s

Time = 38

         Steady solver/PNP-NS Iteration      # 1
BiCGStab:  Solving for PNP, Initial residual = (0.0170546 0.0264122 5.898e-15), Final residual = (1.88332e-26 2.8826e-26 4.73462e-26), No Iterations 111
maxResidual = 0.0264122

ExecutionTime = 4.44 s  ClockTime = 5 s

Time = 39

         Steady solver/PNP-NS Iteration      # 1
BiCGStab:  Solving for PNP, Initial residual = (0.0661534 0.0986016 2.05049e-14), Final residual = (8.99011e-27 1.3701e-26 2.27938e-26), No Iterations 114
maxResidual = 0.0986016

ExecutionTime = 4.56 s  ClockTime = 5 s

Time = 40

         Steady solver/PNP-NS Iteration      # 1
BiCGStab:  Solving for PNP, Initial residual = (0.0168504 0.0260937 5.90214e-15), Final residual = (2.79583e-26 4.32294e-26 7.1227e-26), No Iterations 110
maxResidual = 0.0260937

ExecutionTime = 4.68 s  ClockTime = 5 s

Time = 41

         Steady solver/PNP-NS Iteration      # 1
BiCGStab:  Solving for PNP, Initial residual = (0.0635528 0.0946451 1.9699e-14), Final residual = (8.98576e-27 1.37146e-26 2.2851e-26), No Iterations 113
maxResidual = 0.0946451

ExecutionTime = 4.79 s  ClockTime = 5 s

Time = 42

         Steady solver/PNP-NS Iteration      # 1
BiCGStab:  Solving for PNP, Initial residual = (0.0166482 0.0257778 6.19427e-15), Final residual = (2.25204e-26 3.44103e-26 5.80446e-26), No Iterations 112
maxResidual = 0.0257778

ExecutionTime = 4.91 s  ClockTime = 5 s

Time = 43

         Steady solver/PNP-NS Iteration      # 1
BiCGStab:  Solving for PNP, Initial residual = (0.0610976 0.0909175 2.08221e-14), Final residual = (6.05481e-27 9.24976e-27 1.54347e-26), No Iterations 119
maxResidual = 0.0909175

ExecutionTime = 5.03 s  ClockTime = 5 s

Time = 44

         Steady solver/PNP-NS Iteration      # 1
BiCGStab:  Solving for PNP, Initial residual = (0.0164475 0.0254639 6.27645e-15), Final residual = (6.68449e-27 1.02594e-26 1.78721e-26), No Iterations 111
maxResidual = 0.0254639

ExecutionTime = 5.14 s  ClockTime = 5 s

Time = 45

         Steady solver/PNP-NS Iteration      # 1
BiCGStab:  Solving for PNP, Initial residual = (0.0587723 0.0873937 2.02081e-14), Final residual = (8.364e-27 1.27694e-26 2.19716e-26), No Iterations 121
maxResidual = 0.0873937

ExecutionTime = 5.27 s  ClockTime = 6 s

Time = 46

         Steady solver/PNP-NS Iteration      # 1
BiCGStab:  Solving for PNP, Initial residual = (0.0162479 0.0251514 6.23045e-15), Final residual = (7.46632e-27 1.13537e-26 2.02856e-26), No Iterations 114
maxResidual = 0.0251514

ExecutionTime = 5.38 s  ClockTime = 6 s

Time = 47

         Steady solver/PNP-NS Iteration      # 1
BiCGStab:  Solving for PNP, Initial residual = (0.0565633 0.0840524 1.98637e-14), Final residual = (1.30603e-26 1.9327e-26 3.31258e-26), No Iterations 114
maxResidual = 0.0840524

ExecutionTime = 5.5 s  ClockTime = 6 s

Time = 48

         Steady solver/PNP-NS Iteration      # 1
BiCGStab:  Solving for PNP, Initial residual = (0.016049 0.0248396 6.13694e-15), Final residual = (1.22266e-26 1.86612e-26 3.14624e-26), No Iterations 114
maxResidual = 0.0248396

ExecutionTime = 5.61 s  ClockTime = 6 s

Time = 49

         Steady solver/PNP-NS Iteration      # 1
BiCGStab:  Solving for PNP, Initial residual = (0.054458 0.0808737 1.9719e-14), Final residual = (6.14634e-27 9.24413e-27 1.55419e-26), No Iterations 114
maxResidual = 0.0808737

ExecutionTime = 5.73 s  ClockTime = 6 s

Time = 50

         Steady solver/PNP-NS Iteration      # 1
BiCGStab:  Solving for PNP, Initial residual = (0.01585 0.0245262 6.54484e-15), Final residual = (2.5161e-26 3.8425e-26 6.70583e-26), No Iterations 119
maxResidual = 0.0245262

ExecutionTime = 5.86 s  ClockTime = 6 s

Time = 51

         Steady solver/PNP-NS Iteration      # 1
BiCGStab:  Solving for PNP, Initial residual = (0.0524351 0.0778265 1.90242e-14), Final residual = (3.00324e-26 4.5835e-26 8.0522e-26), No Iterations 115
maxResidual = 0.0778265

ExecutionTime = 5.98 s  ClockTime = 6 s

Time = 52

         Steady solver/PNP-NS Iteration      # 1
BiCGStab:  Solving for PNP, Initial residual = (0.0156503 0.0242115 6.57665e-15), Final residual = (2.49654e-26 3.81203e-26 6.45923e-26), No Iterations 114
maxResidual = 0.0242115

ExecutionTime = 6.09 s  ClockTime = 6 s

Time = 53

         Steady solver/PNP-NS Iteration      # 1
BiCGStab:  Solving for PNP, Initial residual = (0.0504885 0.0748997 1.91937e-14), Final residual = (1.96946e-26 3.00338e-26 5.07633e-26), No Iterations 119
maxResidual = 0.0748997

ExecutionTime = 6.21 s  ClockTime = 7 s

Time = 54

         Steady solver/PNP-NS Iteration      # 1
BiCGStab:  Solving for PNP, Initial residual = (0.0154495 0.023895 6.55682e-15), Final residual = (1.50462e-26 2.29572e-26 4.02275e-26), No Iterations 116
maxResidual = 0.023895

ExecutionTime = 6.33 s  ClockTime = 7 s

Time = 55

         Steady solver/PNP-NS Iteration      # 1
BiCGStab:  Solving for PNP, Initial residual = (0.048612 0.0720829 1.94127e-14), Final residual = (2.66271e-26 3.89953e-26 6.72688e-26), No Iterations 117
maxResidual = 0.0720829

ExecutionTime = 6.44 s  ClockTime = 7 s

Time = 56

         Steady solver/PNP-NS Iteration      # 1
BiCGStab:  Solving for PNP, Initial residual = (0.0152472 0.0235761 6.60551e-15), Final residual = (3.03067e-26 4.62496e-26 7.72021e-26), No Iterations 117
maxResidual = 0.0235761

ExecutionTime = 6.56 s  ClockTime = 7 s

Time = 57

         Steady solver/PNP-NS Iteration      # 1
BiCGStab:  Solving for PNP, Initial residual = (0.0468 0.0693674 1.87393e-14), Final residual = (3.07838e-26 4.69847e-26 7.85526e-26), No Iterations 118
maxResidual = 0.0693674

ExecutionTime = 6.68 s  ClockTime = 7 s

Time = 58

         Steady solver/PNP-NS Iteration      # 1
BiCGStab:  Solving for PNP, Initial residual = (0.0150431 0.0232542 6.44779e-15), Final residual = (2.09408e-26 3.19407e-26 5.35053e-26), No Iterations 116
maxResidual = 0.0232542

ExecutionTime = 6.8 s  ClockTime = 7 s

Time = 59

         Steady solver/PNP-NS Iteration      # 1
BiCGStab:  Solving for PNP, Initial residual = (0.0450472 0.0667448 1.90676e-14), Final residual = (1.77303e-26 2.70531e-26 4.5943e-26), No Iterations 113
maxResidual = 0.0667448

ExecutionTime = 6.92 s  ClockTime = 7 s

Time = 60

         Steady solver/PNP-NS Iteration      # 1
BiCGStab:  Solving for PNP, Initial residual = (0.0148367 0.0229313 6.55259e-15), Final residual = (7.46083e-27 1.14068e-26 1.93364e-26), No Iterations 121
maxResidual = 0.0229313

ExecutionTime = 7.05 s  ClockTime = 7 s

Time = 61

         Steady solver/PNP-NS Iteration      # 1
BiCGStab:  Solving for PNP, Initial residual = (0.0433494 0.0642079 1.80112e-14), Final residual = (1.98439e-26 3.07947e-26 5.23838e-26), No Iterations 115
maxResidual = 0.0642079

ExecutionTime = 7.16 s  ClockTime = 8 s

Time = 62

         Steady solver/PNP-NS Iteration      # 1
BiCGStab:  Solving for PNP, Initial residual = (0.0146277 0.0226037 6.56013e-15), Final residual = (3.16168e-26 4.82816e-26 8.09219e-26), No Iterations 119
maxResidual = 0.0226037

ExecutionTime = 7.29 s  ClockTime = 8 s

Time = 63

         Steady solver/PNP-NS Iteration      # 1
BiCGStab:  Solving for PNP, Initial residual = (0.0417027 0.0617505 1.75637e-14), Final residual = (2.48474e-26 3.79256e-26 6.36125e-26), No Iterations 114
maxResidual = 0.0617505

ExecutionTime = 7.39 s  ClockTime = 8 s

Time = 64

         Steady solver/PNP-NS Iteration      # 1
BiCGStab:  Solving for PNP, Initial residual = (0.0144158 0.0222708 6.64833e-15), Final residual = (2.47734e-26 3.7806e-26 6.37353e-26), No Iterations 118
maxResidual = 0.0222708

ExecutionTime = 7.52 s  ClockTime = 8 s

Time = 65

         Steady solver/PNP-NS Iteration      # 1
BiCGStab:  Solving for PNP, Initial residual = (0.0401046 0.0593681 1.722e-14), Final residual = (1.55477e-26 2.37471e-26 3.95751e-26), No Iterations 114
maxResidual = 0.0593681

ExecutionTime = 7.63 s  ClockTime = 8 s

Time = 66

         Steady solver/PNP-NS Iteration      # 1
BiCGStab:  Solving for PNP, Initial residual = (0.0142007 0.0219322 6.56742e-15), Final residual = (9.84791e-27 1.50364e-26 2.5283e-26), No Iterations 121
maxResidual = 0.0219322

ExecutionTime = 7.75 s  ClockTime = 8 s

Time = 67

         Steady solver/PNP-NS Iteration      # 1
BiCGStab:  Solving for PNP, Initial residual = (0.0385549 0.0570606 1.66827e-14), Final residual = (3.01358e-26 4.60313e-26 7.84652e-26), No Iterations 113
maxResidual = 0.0570606

ExecutionTime = 7.87 s  ClockTime = 8 s

Time = 68

         Steady solver/PNP-NS Iteration      # 1
BiCGStab:  Solving for PNP, Initial residual = (0.0139822 0.0215881 6.55977e-15), Final residual = (3.00417e-26 4.59025e-26 7.87756e-26), No Iterations 114
maxResidual = 0.0215881

ExecutionTime = 7.98 s  ClockTime = 8 s

Time = 69

         Steady solver/PNP-NS Iteration      # 1
BiCGStab:  Solving for PNP, Initial residual = (0.0370502 0.0548217 1.63454e-14), Final residual = (3.01811e-26 4.60568e-26 7.81247e-26), No Iterations 119
maxResidual = 0.0548217

ExecutionTime = 8.11 s  ClockTime = 9 s

Time = 70

         Steady solver/PNP-NS Iteration      # 1
BiCGStab:  Solving for PNP, Initial residual = (0.0137604 0.0212387 6.60989e-15), Final residual = (3.04252e-26 4.64215e-26 7.85072e-26), No Iterations 118
maxResidual = 0.0212387

ExecutionTime = 8.24 s  ClockTime = 9 s

Time = 71

         Steady solver/PNP-NS Iteration      # 1
BiCGStab:  Solving for PNP, Initial residual = (0.035591 0.0526519 1.60785e-14), Final residual = (2.14327e-26 3.27072e-26 5.53353e-26), No Iterations 116
maxResidual = 0.0526519

ExecutionTime = 8.36 s  ClockTime = 9 s

Time = 72

         Steady solver/PNP-NS Iteration      # 1
BiCGStab:  Solving for PNP, Initial residual = (0.0135355 0.0208847 6.69574e-15), Final residual = (2.29943e-26 3.51139e-26 6.0143e-26), No Iterations 113
maxResidual = 0.0208847

ExecutionTime = 8.47 s  ClockTime = 9 s

Time = 73

         Steady solver/PNP-NS Iteration      # 1
BiCGStab:  Solving for PNP, Initial residual = (0.0341783 0.0505548 1.60064e-14), Final residual = (3.11277e-26 4.74971e-26 8.09817e-26), No Iterations 118
maxResidual = 0.0505548

ExecutionTime = 8.59 s  ClockTime = 9 s

Time = 74

         Steady solver/PNP-NS Iteration      # 1
BiCGStab:  Solving for PNP, Initial residual = (0.0133079 0.020527 6.57734e-15), Final residual = (1.33804e-26 2.04214e-26 3.55593e-26), No Iterations 115
maxResidual = 0.020527

ExecutionTime = 8.7 s  ClockTime = 9 s

Time = 75

         Steady solver/PNP-NS Iteration      # 1
BiCGStab:  Solving for PNP, Initial residual = (0.0328144 0.0485297 1.58182e-14), Final residual = (1.94067e-26 2.96258e-26 5.03418e-26), No Iterations 115
maxResidual = 0.0485297

ExecutionTime = 8.81 s  ClockTime = 9 s

Time = 76

         Steady solver/PNP-NS Iteration      # 1
BiCGStab:  Solving for PNP, Initial residual = (0.0130783 0.0201669 6.73684e-15), Final residual = (9.60059e-27 1.46411e-26 2.50227e-26), No Iterations 121
maxResidual = 0.0201669

ExecutionTime = 8.93 s  ClockTime = 9 s

Time = 77

         Steady solver/PNP-NS Iteration      # 1
BiCGStab:  Solving for PNP, Initial residual = (0.0315019 0.0465833 1.58452e-14), Final residual = (1.26819e-26 1.93413e-26 3.2986e-26), No Iterations 121
maxResidual = 0.0465833

ExecutionTime = 9.05 s  ClockTime = 9 s

Time = 78

         Steady solver/PNP-NS Iteration      # 1
BiCGStab:  Solving for PNP, Initial residual = (0.0128474 0.0198057 6.78641e-15), Final residual = (1.38084e-26 2.10535e-26 3.88944e-26), No Iterations 120
maxResidual = 0.0198057

ExecutionTime = 9.16 s  ClockTime = 10 s

Time = 79

         Steady solver/PNP-NS Iteration      # 1
BiCGStab:  Solving for PNP, Initial residual = (0.0302434 0.0447165 1.53468e-14), Final residual = (2.49277e-26 3.80221e-26 6.65999e-26), No Iterations 120
maxResidual = 0.0447165

ExecutionTime = 9.28 s  ClockTime = 10 s

Time = 80

         Steady solver/PNP-NS Iteration      # 1
BiCGStab:  Solving for PNP, Initial residual = (0.0126163 0.0194452 6.6816e-15), Final residual = (2.10007e-26 3.20419e-26 5.51902e-26), No Iterations 113
maxResidual = 0.0194452

ExecutionTime = 9.41 s  ClockTime = 10 s

Time = 81

         Steady solver/PNP-NS Iteration      # 1
BiCGStab:  Solving for PNP, Initial residual = (0.0290413 0.0429336 1.51244e-14), Final residual = (1.07243e-26 1.64005e-26 2.87973e-26), No Iterations 114
cMinus: -1.81389e-06 .  Bounding.
maxResidual = 0.0429336

ExecutionTime = 9.54 s  ClockTime = 10 s

Time = 82

         Steady solver/PNP-NS Iteration      # 1
BiCGStab:  Solving for PNP, Initial residual = (0.0123861 0.0190864 6.81044e-15), Final residual = (3.10718e-26 4.74147e-26 8.12711e-26), No Iterations 116
maxResidual = 0.0190864

ExecutionTime = 9.65 s  ClockTime = 10 s

Time = 83

         Steady solver/PNP-NS Iteration      # 1
BiCGStab:  Solving for PNP, Initial residual = (0.0278971 0.0412372 1.45373e-14), Final residual = (1.81579e-26 2.76206e-26 4.9993e-26), No Iterations 121
cMinus: -4.22683e-06 .  Bounding.
maxResidual = 0.0412372

ExecutionTime = 9.77 s  ClockTime = 10 s

Time = 84

         Steady solver/PNP-NS Iteration      # 1
BiCGStab:  Solving for PNP, Initial residual = (0.0121577 0.0187308 6.73533e-15), Final residual = (1.91526e-26 2.92182e-26 5.0506e-26), No Iterations 120
maxResidual = 0.0187308

ExecutionTime = 9.89 s  ClockTime = 10 s

Time = 85

         Steady solver/PNP-NS Iteration      # 1
BiCGStab:  Solving for PNP, Initial residual = (0.0268115 0.0396266 1.44519e-14), Final residual = (1.71909e-26 2.6194e-26 4.52423e-26), No Iterations 122
cMinus: -3.60596e-06 .  Bounding.
maxResidual = 0.0396266

ExecutionTime = 10.01 s  ClockTime = 10 s

Time = 86

         Steady solver/PNP-NS Iteration      # 1
BiCGStab:  Solving for PNP, Initial residual = (0.0119322 0.0183803 6.84795e-15), Final residual = (2.71462e-26 4.14115e-26 7.10666e-26), No Iterations 113
maxResidual = 0.0183803

ExecutionTime = 10.13 s  ClockTime = 11 s

Time = 87

         Steady solver/PNP-NS Iteration      # 1
BiCGStab:  Solving for PNP, Initial residual = (0.0257844 0.0381049 1.42106e-14), Final residual = (2.66397e-26 4.06333e-26 7.04131e-26), No Iterations 115
cMinus: -2.52934e-06 .  Bounding.
maxResidual = 0.0381049

ExecutionTime = 10.24 s  ClockTime = 11 s

Time = 88

         Steady solver/PNP-NS Iteration      # 1
BiCGStab:  Solving for PNP, Initial residual = (0.0117103 0.0180355 6.83436e-15), Final residual = (2.81919e-26 4.29958e-26 7.47064e-26), No Iterations 121
maxResidual = 0.0180355

ExecutionTime = 10.37 s  ClockTime = 11 s

Time = 89

         Steady solver/PNP-NS Iteration      # 1
BiCGStab:  Solving for PNP, Initial residual = (0.0248147 0.0366675 1.39379e-14), Final residual = (7.45736e-27 1.13951e-26 2.01502e-26), No Iterations 123
cMinus: -1.94144e-06 .  Bounding.
maxResidual = 0.0366675

ExecutionTime = 10.49 s  ClockTime = 11 s

Time = 90

         Steady solver/PNP-NS Iteration      # 1
BiCGStab:  Solving for PNP, Initial residual = (0.0114928 0.0176977 6.98792e-15), Final residual = (2.73147e-26 4.16496e-26 7.2351e-26), No Iterations 120
maxResidual = 0.0176977

ExecutionTime = 10.62 s  ClockTime = 11 s

Time = 91

         Steady solver/PNP-NS Iteration      # 1
BiCGStab:  Solving for PNP, Initial residual = (0.023901 0.0353132 1.30965e-14), Final residual = (1.17004e-26 1.78737e-26 3.17309e-26), No Iterations 126
cMinus: -2.01747e-06 .  Bounding.
maxResidual = 0.0353132

ExecutionTime = 10.75 s  ClockTime = 11 s

Time = 92

         Steady solver/PNP-NS Iteration      # 1
BiCGStab:  Solving for PNP, Initial residual = (0.0112803 0.0173679 6.97628e-15), Final residual = (7.92753e-27 1.20885e-26 2.15329e-26), No Iterations 115
maxResidual = 0.0173679

ExecutionTime = 10.86 s  ClockTime = 11 s

Time = 93

         Steady solver/PNP-NS Iteration      # 1
BiCGStab:  Solving for PNP, Initial residual = (0.0230409 0.0340398 1.29016e-14), Final residual = (1.31629e-26 2.00563e-26 3.466e-26), No Iterations 124
cMinus: -1.97911e-06 .  Bounding.
maxResidual = 0.0340398

ExecutionTime = 10.99 s  ClockTime = 11 s

Time = 94

         Steady solver/PNP-NS Iteration      # 1
BiCGStab:  Solving for PNP, Initial residual = (0.0110731 0.0170464 6.96326e-15), Final residual = (6.13215e-27 9.34849e-27 1.65893e-26), No Iterations 116
maxResidual = 0.0170464

ExecutionTime = 11.1 s  ClockTime = 12 s

Time = 95

         Steady solver/PNP-NS Iteration      # 1
BiCGStab:  Solving for PNP, Initial residual = (0.0222302 0.0328395 1.2995e-14), Final residual = (4.01675e-27 6.11954e-27 1.07383e-26), No Iterations 126
cMinus: -1.88792e-06 .  Bounding.
maxResidual = 0.0328395

ExecutionTime = 11.23 s  ClockTime = 12 s

Time = 96

         Steady solver/PNP-NS Iteration      # 1
BiCGStab:  Solving for PNP, Initial residual = (0.0108714 0.0167333 7.18856e-15), Final residual = (6.76007e-27 1.03245e-26 1.82759e-26), No Iterations 122
maxResidual = 0.0167333

ExecutionTime = 11.35 s  ClockTime = 12 s

Time = 97

         Steady solver/PNP-NS Iteration      # 1
BiCGStab:  Solving for PNP, Initial residual = (0.0214667 0.0317113 1.33747e-14), Final residual = (1.13708e-26 1.73907e-26 3.12568e-26), No Iterations 120
cMinus: -2.10724e-06 .  Bounding.
maxResidual = 0.0317113

ExecutionTime = 11.46 s  ClockTime = 12 s

Time = 98

         Steady solver/PNP-NS Iteration      # 1
BiCGStab:  Solving for PNP, Initial residual = (0.0106753 0.0164291 7.16885e-15), Final residual = (1.54209e-26 2.34821e-26 4.07737e-26), No Iterations 123
maxResidual = 0.0164291

ExecutionTime = 11.58 s  ClockTime = 12 s

Time = 99

         Steady solver/PNP-NS Iteration      # 1
BiCGStab:  Solving for PNP, Initial residual = (0.0207482 0.0306489 1.3729e-14), Final residual = (1.058e-26 1.61377e-26 2.82892e-26), No Iterations 125
cMinus: -1.73537e-06 .  Bounding.
maxResidual = 0.0306489

ExecutionTime = 11.69 s  ClockTime = 12 s

Time = 100

         Steady solver/PNP-NS Iteration      # 1
BiCGStab:  Solving for PNP, Initial residual = (0.010485 0.016134 7.28121e-15), Final residual = (1.73597e-26 2.64712e-26 4.6885e-26), No Iterations 124
maxResidual = 0.016134

ExecutionTime = 11.82 s  ClockTime = 12 s

Time = 101

         Steady solver/PNP-NS Iteration      # 1
BiCGStab:  Solving for PNP, Initial residual = (0.0200722 0.0296505 1.32133e-14), Final residual = (2.70035e-26 4.13618e-26 7.35942e-26), No Iterations 123
cMinus: -2.04346e-06 .  Bounding.
maxResidual = 0.0296505

ExecutionTime = 11.95 s  ClockTime = 12 s

Time = 102

         Steady solver/PNP-NS Iteration      # 1
BiCGStab:  Solving for PNP, Initial residual = (0.0103009 0.0158483 7.32219e-15), Final residual = (2.911e-26 4.43599e-26 8.14248e-26), No Iterations 119
maxResidual = 0.0158483

ExecutionTime = 12.06 s  ClockTime = 13 s

Time = 103

         Steady solver/PNP-NS Iteration      # 1
BiCGStab:  Solving for PNP, Initial residual = (0.0194363 0.0287116 1.33333e-14), Final residual = (6.99647e-27 1.06686e-26 1.9071e-26), No Iterations 123
cMinus: -1.76723e-06 .  Bounding.
maxResidual = 0.0287116

ExecutionTime = 12.18 s  ClockTime = 13 s

Time = 104

         Steady solver/PNP-NS Iteration      # 1
BiCGStab:  Solving for PNP, Initial residual = (0.0101228 0.0155716 7.06266e-15), Final residual = (2.95743e-26 4.35804e-26 8.34218e-26), No Iterations 117
maxResidual = 0.0155716

ExecutionTime = 12.3 s  ClockTime = 13 s

Time = 105

         Steady solver/PNP-NS Iteration      # 1
BiCGStab:  Solving for PNP, Initial residual = (0.018838 0.0278286 1.35077e-14), Final residual = (1.0522e-26 1.60202e-26 2.86054e-26), No Iterations 124
cMinus: -1.92261e-06 .  Bounding.
maxResidual = 0.0278286

ExecutionTime = 12.41 s  ClockTime = 13 s

Time = 106

         Steady solver/PNP-NS Iteration      # 1
BiCGStab:  Solving for PNP, Initial residual = (0.0099507 0.0153044 7.14524e-15), Final residual = (2.81237e-26 4.2769e-26 8.41518e-26), No Iterations 114
maxResidual = 0.0153044

ExecutionTime = 12.52 s  ClockTime = 13 s

Time = 107

         Steady solver/PNP-NS Iteration      # 1
BiCGStab:  Solving for PNP, Initial residual = (0.0182751 0.0269984 1.31596e-14), Final residual = (1.96311e-26 2.97564e-26 5.59967e-26), No Iterations 122
cMinus: -1.66418e-06 .  Bounding.
maxResidual = 0.0269984

ExecutionTime = 12.64 s  ClockTime = 13 s

Time = 108

         Steady solver/PNP-NS Iteration      # 1
BiCGStab:  Solving for PNP, Initial residual = (0.00978455 0.0150462 7.04902e-15), Final residual = (1.47524e-26 2.24984e-26 4.00392e-26), No Iterations 122
maxResidual = 0.0150462

ExecutionTime = 12.76 s  ClockTime = 13 s

Time = 109

         Steady solver/PNP-NS Iteration      # 1
BiCGStab:  Solving for PNP, Initial residual = (0.0177451 0.0262167 1.28204e-14), Final residual = (2.83111e-26 4.31709e-26 7.76166e-26), No Iterations 122
cMinus: -1.78896e-06 .  Bounding.
maxResidual = 0.0262167

ExecutionTime = 12.88 s  ClockTime = 13 s

Time = 110

         Steady solver/PNP-NS Iteration      # 1
BiCGStab:  Solving for PNP, Initial residual = (0.00962425 0.0147972 7.10585e-15), Final residual = (2.93044e-26 4.46876e-26 7.96864e-26), No Iterations 121
maxResidual = 0.0147972

ExecutionTime = 13 s  ClockTime = 14 s

Time = 111

         Steady solver/PNP-NS Iteration      # 1
BiCGStab:  Solving for PNP, Initial residual = (0.0172458 0.0254814 1.29528e-14), Final residual = (1.61719e-26 2.46436e-26 4.55933e-26), No Iterations 121
cMinus: -1.41884e-06 .  Bounding.
maxResidual = 0.0254814

ExecutionTime = 13.12 s  ClockTime = 14 s

Time = 112

         Steady solver/PNP-NS Iteration      # 1
BiCGStab:  Solving for PNP, Initial residual = (0.00946968 0.0145569 7.07734e-15), Final residual = (1.35168e-26 2.05455e-26 3.80383e-26), No Iterations 113
maxResidual = 0.0145569

ExecutionTime = 13.23 s  ClockTime = 14 s

Time = 113

         Steady solver/PNP-NS Iteration      # 1
BiCGStab:  Solving for PNP, Initial residual = (0.0167752 0.024788 1.23539e-14), Final residual = (1.45994e-26 2.22119e-26 4.07673e-26), No Iterations 121
cMinus: -1.63943e-06 .  Bounding.
maxResidual = 0.024788

ExecutionTime = 13.35 s  ClockTime = 14 s

Time = 114

         Steady solver/PNP-NS Iteration      # 1
BiCGStab:  Solving for PNP, Initial residual = (0.00932069 0.0143252 7.05611e-15), Final residual = (2.87629e-26 4.38493e-26 8.01288e-26), No Iterations 120
maxResidual = 0.0143252

ExecutionTime = 13.46 s  ClockTime = 14 s

Time = 115

         Steady solver/PNP-NS Iteration      # 1
BiCGStab:  Solving for PNP, Initial residual = (0.0163312 0.0241347 1.25328e-14), Final residual = (1.59878e-26 2.43699e-26 4.5412e-26), No Iterations 115
cMinus: -1.36139e-06 .  Bounding.
maxResidual = 0.0241347

ExecutionTime = 13.57 s  ClockTime = 14 s

Time = 116

         Steady solver/PNP-NS Iteration      # 1
BiCGStab:  Solving for PNP, Initial residual = (0.00917709 0.0141018 7.12606e-15), Final residual = (2.24808e-26 3.42747e-26 6.2023e-26), No Iterations 112
maxResidual = 0.0141018

ExecutionTime = 13.68 s  ClockTime = 14 s

Time = 117

         Steady solver/PNP-NS Iteration      # 1
BiCGStab:  Solving for PNP, Initial residual = (0.015912 0.0235178 1.21707e-14), Final residual = (2.26769e-26 3.47265e-26 6.99593e-26), No Iterations 116
cMinus: -1.43606e-06 .  Bounding.
maxResidual = 0.0235178

ExecutionTime = 13.79 s  ClockTime = 14 s

Time = 118

         Steady solver/PNP-NS Iteration      # 1
BiCGStab:  Solving for PNP, Initial residual = (0.00903871 0.0138863 7.05501e-15), Final residual = (1.89753e-26 2.89381e-26 5.29062e-26), No Iterations 111
maxResidual = 0.0138863

ExecutionTime = 13.9 s  ClockTime = 14 s

Time = 119

         Steady solver/PNP-NS Iteration      # 1
BiCGStab:  Solving for PNP, Initial residual = (0.0155157 0.0229353 1.20044e-14), Final residual = (9.14456e-27 1.40286e-26 2.78813e-26), No Iterations 117
cMinus: -1.29924e-06 .  Bounding.
maxResidual = 0.0229353

ExecutionTime = 14.01 s  ClockTime = 15 s

Time = 120

         Steady solver/PNP-NS Iteration      # 1
BiCGStab:  Solving for PNP, Initial residual = (0.00890534 0.0136787 7.0375e-15), Final residual = (1.66804e-26 2.54209e-26 4.68904e-26), No Iterations 115
maxResidual = 0.0136787

ExecutionTime = 14.13 s  ClockTime = 15 s

Time = 121

         Steady solver/PNP-NS Iteration      # 1
BiCGStab:  Solving for PNP, Initial residual = (0.0151407 0.0223842 1.2267e-14), Final residual = (8.18615e-27 1.24634e-26 2.42962e-26), No Iterations 121
cMinus: -1.08955e-06 .  Bounding.
maxResidual = 0.0223842

ExecutionTime = 14.24 s  ClockTime = 15 s

Time = 122

         Steady solver/PNP-NS Iteration      # 1
BiCGStab:  Solving for PNP, Initial residual = (0.00877676 0.0134782 7.22573e-15), Final residual = (7.63141e-27 1.16212e-26 2.17332e-26), No Iterations 116
maxResidual = 0.0134782

ExecutionTime = 14.36 s  ClockTime = 15 s

Time = 123

         Steady solver/PNP-NS Iteration      # 1
BiCGStab:  Solving for PNP, Initial residual = (0.0147854 0.0218624 1.18356e-14), Final residual = (2.06983e-26 3.15441e-26 5.99043e-26), No Iterations 123
cMinus: -1.18588e-06 .  Bounding.
maxResidual = 0.0218624

ExecutionTime = 14.47 s  ClockTime = 15 s

Time = 124

         Steady solver/PNP-NS Iteration      # 1
BiCGStab:  Solving for PNP, Initial residual = (0.00865276 0.013285 7.42626e-15), Final residual = (1.83677e-26 2.7948e-26 5.45226e-26), No Iterations 117
maxResidual = 0.013285

ExecutionTime = 14.59 s  ClockTime = 15 s

Time = 125

         Steady solver/PNP-NS Iteration      # 1
BiCGStab:  Solving for PNP, Initial residual = (0.0144485 0.021368 1.18222e-14), Final residual = (1.22923e-26 1.86954e-26 3.74567e-26), No Iterations 117
cMinus: -1.01788e-06 .  Bounding.
maxResidual = 0.021368

ExecutionTime = 14.7 s  ClockTime = 15 s

Time = 126

         Steady solver/PNP-NS Iteration      # 1
BiCGStab:  Solving for PNP, Initial residual = (0.00853313 0.0130984 7.04544e-15), Final residual = (2.64818e-26 4.03389e-26 7.79583e-26), No Iterations 119
maxResidual = 0.0130984

ExecutionTime = 14.81 s  ClockTime = 15 s

Time = 127

         Steady solver/PNP-NS Iteration      # 1
BiCGStab:  Solving for PNP, Initial residual = (0.0141286 0.0208983 1.17691e-14), Final residual = (2.59706e-26 3.95823e-26 7.38901e-26), No Iterations 125
cMinus: -9.2472e-07 .  Bounding.
maxResidual = 0.0208983

ExecutionTime = 14.93 s  ClockTime = 16 s

Time = 128

         Steady solver/PNP-NS Iteration      # 1
BiCGStab:  Solving for PNP, Initial residual = (0.00841766 0.0129181 7.10338e-15), Final residual = (2.06468e-26 3.14749e-26 5.80488e-26), No Iterations 117
maxResidual = 0.0129181

ExecutionTime = 15.04 s  ClockTime = 16 s

Time = 129

         Steady solver/PNP-NS Iteration      # 1
BiCGStab:  Solving for PNP, Initial residual = (0.0138244 0.0204526 1.16221e-14), Final residual = (1.59861e-26 2.43687e-26 4.57899e-26), No Iterations 116
cMinus: -9.46587e-07 .  Bounding.
maxResidual = 0.0204526

ExecutionTime = 15.15 s  ClockTime = 16 s

Time = 130

         Steady solver/PNP-NS Iteration      # 1
BiCGStab:  Solving for PNP, Initial residual = (0.00830613 0.0127441 7.25187e-15), Final residual = (1.03679e-26 1.5805e-26 2.93634e-26), No Iterations 125
maxResidual = 0.0127441

ExecutionTime = 15.28 s  ClockTime = 16 s

Time = 131

         Steady solver/PNP-NS Iteration      # 1
BiCGStab:  Solving for PNP, Initial residual = (0.0135349 0.0200277 1.12009e-14), Final residual = (4.63841e-27 7.05378e-27 1.3476e-26), No Iterations 123
cMinus: -8.16687e-07 .  Bounding.
maxResidual = 0.0200277

ExecutionTime = 15.4 s  ClockTime = 16 s

Time = 132

         Steady solver/PNP-NS Iteration      # 1
BiCGStab:  Solving for PNP, Initial residual = (0.00819841 0.0125757 7.36278e-15), Final residual = (2.88134e-26 4.36411e-26 8.07084e-26), No Iterations 124
maxResidual = 0.0125757

ExecutionTime = 15.53 s  ClockTime = 16 s

Time = 133

         Steady solver/PNP-NS Iteration      # 1
BiCGStab:  Solving for PNP, Initial residual = (0.0132589 0.0196234 1.13562e-14), Final residual = (1.40678e-26 2.1446e-26 3.9923e-26), No Iterations 122
cMinus: -6.9718e-07 .  Bounding.
maxResidual = 0.0196234

ExecutionTime = 15.64 s  ClockTime = 16 s

Time = 134

         Steady solver/PNP-NS Iteration      # 1
BiCGStab:  Solving for PNP, Initial residual = (0.00809442 0.0124128 7.50757e-15), Final residual = (1.28024e-26 1.95003e-26 3.80368e-26), No Iterations 125
maxResidual = 0.0124128

ExecutionTime = 15.76 s  ClockTime = 16 s

Time = 135

         Steady solver/PNP-NS Iteration      # 1
BiCGStab:  Solving for PNP, Initial residual = (0.0129955 0.0192374 1.11579e-14), Final residual = (3.97423e-27 6.04521e-27 1.19416e-26), No Iterations 116
cMinus: -7.45276e-07 .  Bounding.
maxResidual = 0.0192374

ExecutionTime = 15.87 s  ClockTime = 16 s

Time = 136

         Steady solver/PNP-NS Iteration      # 1
BiCGStab:  Solving for PNP, Initial residual = (0.00799373 0.0122551 7.26519e-15), Final residual = (1.73279e-26 2.65823e-26 5.33669e-26), No Iterations 124
maxResidual = 0.0122551

ExecutionTime = 15.99 s  ClockTime = 17 s

Time = 137

         Steady solver/PNP-NS Iteration      # 1
BiCGStab:  Solving for PNP, Initial residual = (0.0127438 0.0188685 1.09217e-14), Final residual = (8.77839e-27 1.3369e-26 2.52731e-26), No Iterations 123
cMinus: -6.6783e-07 .  Bounding.
maxResidual = 0.0188685

ExecutionTime = 16.11 s  ClockTime = 17 s

Time = 138

         Steady solver/PNP-NS Iteration      # 1
BiCGStab:  Solving for PNP, Initial residual = (0.00789614 0.0121023 7.35527e-15), Final residual = (2.49188e-26 3.85147e-26 7.3444e-26), No Iterations 125
maxResidual = 0.0121023

ExecutionTime = 16.23 s  ClockTime = 17 s

Time = 139

         Steady solver/PNP-NS Iteration      # 1
BiCGStab:  Solving for PNP, Initial residual = (0.012503 0.018516 1.09602e-14), Final residual = (1.80305e-26 2.74632e-26 5.42061e-26), No Iterations 124
cMinus: -5.58064e-07 .  Bounding.
maxResidual = 0.018516

ExecutionTime = 16.34 s  ClockTime = 17 s

Time = 140

         Steady solver/PNP-NS Iteration      # 1
BiCGStab:  Solving for PNP, Initial residual = (0.00780149 0.0119541 7.41401e-15), Final residual = (1.70629e-26 2.59837e-26 5.27373e-26), No Iterations 123
maxResidual = 0.0119541

ExecutionTime = 16.47 s  ClockTime = 17 s

Time = 141

         Steady solver/PNP-NS Iteration      # 1
BiCGStab:  Solving for PNP, Initial residual = (0.0122723 0.018178 1.08107e-14), Final residual = (1.18076e-26 1.79504e-26 3.83732e-26), No Iterations 118
cMinus: -5.53973e-07 .  Bounding.
maxResidual = 0.018178

ExecutionTime = 16.59 s  ClockTime = 17 s

Time = 142

         Steady solver/PNP-NS Iteration      # 1
BiCGStab:  Solving for PNP, Initial residual = (0.00770961 0.0118103 7.68791e-15), Final residual = (1.26507e-26 1.92816e-26 3.67666e-26), No Iterations 123
maxResidual = 0.0118103

ExecutionTime = 16.71 s  ClockTime = 17 s

Time = 143

         Steady solver/PNP-NS Iteration      # 1
BiCGStab:  Solving for PNP, Initial residual = (0.0120511 0.0178543 1.06821e-14), Final residual = (2.72889e-26 4.16178e-26 8.04041e-26), No Iterations 129
cMinus: -5.39491e-07 .  Bounding.
maxResidual = 0.0178543

ExecutionTime = 16.83 s  ClockTime = 17 s

Time = 144

         Steady solver/PNP-NS Iteration      # 1
BiCGStab:  Solving for PNP, Initial residual = (0.00762034 0.0116707 7.63332e-15), Final residual = (2.04673e-26 3.11358e-26 6.60538e-26), No Iterations 122
maxResidual = 0.0116707

ExecutionTime = 16.95 s  ClockTime = 18 s

Time = 145

         Steady solver/PNP-NS Iteration      # 1
BiCGStab:  Solving for PNP, Initial residual = (0.0118387 0.0175433 1.05338e-14), Final residual = (1.44072e-26 2.1942e-26 4.48851e-26), No Iterations 115
cMinus: -4.76311e-07 .  Bounding.
maxResidual = 0.0175433

ExecutionTime = 17.06 s  ClockTime = 18 s

Time = 146

         Steady solver/PNP-NS Iteration      # 1
BiCGStab:  Solving for PNP, Initial residual = (0.00753354 0.011535 7.5532e-15), Final residual = (1.04301e-26 1.58984e-26 3.04409e-26), No Iterations 124
maxResidual = 0.011535

ExecutionTime = 17.17 s  ClockTime = 18 s

Time = 147

         Steady solver/PNP-NS Iteration      # 1
BiCGStab:  Solving for PNP, Initial residual = (0.0116345 0.0172443 1.03257e-14), Final residual = (2.89022e-26 4.4049e-26 8.24443e-26), No Iterations 124
cMinus: -4.01629e-07 .  Bounding.
maxResidual = 0.0172443

ExecutionTime = 17.29 s  ClockTime = 18 s

Time = 148

         Steady solver/PNP-NS Iteration      # 1
BiCGStab:  Solving for PNP, Initial residual = (0.00744908 0.0114029 7.60723e-15), Final residual = (6.28062e-27 9.52291e-27 1.99089e-26), No Iterations 124
maxResidual = 0.0114029

ExecutionTime = 17.4 s  ClockTime = 18 s

Time = 149

         Steady solver/PNP-NS Iteration      # 1
BiCGStab:  Solving for PNP, Initial residual = (0.011438 0.0169567 1.02194e-14), Final residual = (1.12163e-26 1.71402e-26 3.35221e-26), No Iterations 124
cMinus: -3.9396e-07 .  Bounding.
maxResidual = 0.0169567

ExecutionTime = 17.53 s  ClockTime = 18 s

Time = 150

         Steady solver/PNP-NS Iteration      # 1
BiCGStab:  Solving for PNP, Initial residual = (0.00736682 0.0112745 7.6779e-15), Final residual = (2.82871e-26 4.31283e-26 8.51372e-26), No Iterations 124
maxResidual = 0.0112745

ExecutionTime = 17.66 s  ClockTime = 18 s

Time = 151

         Steady solver/PNP-NS Iteration      # 1
BiCGStab:  Solving for PNP, Initial residual = (0.0112487 0.0166794 1.09931e-14), Final residual = (1.12032e-26 1.7281e-26 3.65386e-26), No Iterations 122
cMinus: -3.8795e-07 .  Bounding.
maxResidual = 0.0166794

ExecutionTime = 17.78 s  ClockTime = 18 s

Time = 152

         Steady solver/PNP-NS Iteration      # 1
BiCGStab:  Solving for PNP, Initial residual = (0.00728666 0.0111493 7.74158e-15), Final residual = (2.15827e-26 3.28729e-26 6.46918e-26), No Iterations 120
maxResidual = 0.0111493

ExecutionTime = 17.89 s  ClockTime = 19 s

Time = 153

         Steady solver/PNP-NS Iteration      # 1
BiCGStab:  Solving for PNP, Initial residual = (0.0110661 0.0164122 1.13631e-14), Final residual = (1.96617e-26 2.99633e-26 5.89024e-26), No Iterations 128
cMinus: -3.50373e-07 .  Bounding.
maxResidual = 0.0164122

ExecutionTime = 18.01 s  ClockTime = 19 s

Time = 154

         Steady solver/PNP-NS Iteration      # 1
BiCGStab:  Solving for PNP, Initial residual = (0.00720847 0.0110272 7.60643e-15), Final residual = (1.14592e-26 1.73121e-26 3.44468e-26), No Iterations 121
maxResidual = 0.0110272

ExecutionTime = 18.13 s  ClockTime = 19 s

Time = 155

         Steady solver/PNP-NS Iteration      # 1
BiCGStab:  Solving for PNP, Initial residual = (0.0108898 0.0161541 1.1446e-14), Final residual = (2.3548e-26 3.59832e-26 7.42574e-26), No Iterations 126
cMinus: -3.03313e-07 .  Bounding.
maxResidual = 0.0161541

ExecutionTime = 18.25 s  ClockTime = 19 s

Time = 156

         Steady solver/PNP-NS Iteration      # 1
BiCGStab:  Solving for PNP, Initial residual = (0.00713217 0.0109082 7.55241e-15), Final residual = (5.0655e-27 7.71706e-27 1.55275e-26), No Iterations 125
maxResidual = 0.0109082

ExecutionTime = 18.37 s  ClockTime = 19 s

Time = 157

         Steady solver/PNP-NS Iteration      # 1
BiCGStab:  Solving for PNP, Initial residual = (0.0107195 0.0159049 1.15108e-14), Final residual = (8.01231e-27 1.22092e-26 2.53022e-26), No Iterations 121
cMinus: -2.5649e-07 .  Bounding.
maxResidual = 0.0159049

ExecutionTime = 18.48 s  ClockTime = 19 s

Time = 158

         Steady solver/PNP-NS Iteration      # 1
BiCGStab:  Solving for PNP, Initial residual = (0.00705764 0.010792 7.74064e-15), Final residual = (2.032e-26 3.09499e-26 6.28985e-26), No Iterations 122
maxResidual = 0.010792

ExecutionTime = 18.61 s  ClockTime = 19 s

Time = 159

         Steady solver/PNP-NS Iteration      # 1
BiCGStab:  Solving for PNP, Initial residual = (0.0105547 0.0156637 1.13678e-14), Final residual = (2.08232e-26 3.17004e-26 6.74395e-26), No Iterations 123
cMinus: -2.69972e-07 .  Bounding.
maxResidual = 0.0156637

ExecutionTime = 18.73 s  ClockTime = 19 s

Time = 160

         Steady solver/PNP-NS Iteration      # 1
BiCGStab:  Solving for PNP, Initial residual = (0.0069848 0.0106784 7.69105e-15), Final residual = (1.93237e-26 2.94055e-26 5.94131e-26), No Iterations 123
maxResidual = 0.0106784

ExecutionTime = 18.85 s  ClockTime = 20 s

Time = 161

         Steady solver/PNP-NS Iteration      # 1
BiCGStab:  Solving for PNP, Initial residual = (0.0103952 0.0154302 1.15598e-14), Final residual = (2.46893e-26 3.75791e-26 8.09282e-26), No Iterations 120
cMinus: -2.5823e-07 .  Bounding.
maxResidual = 0.0154302

ExecutionTime = 18.99 s  ClockTime = 20 s

Time = 162

         Steady solver/PNP-NS Iteration      # 1
BiCGStab:  Solving for PNP, Initial residual = (0.00691356 0.0105675 7.52339e-15), Final residual = (2.19757e-26 3.34479e-26 7.36578e-26), No Iterations 123
maxResidual = 0.0105675

ExecutionTime = 19.11 s  ClockTime = 20 s

Time = 163

         Steady solver/PNP-NS Iteration      # 1
BiCGStab:  Solving for PNP, Initial residual = (0.0102406 0.0152038 1.14812e-14), Final residual = (1.1576e-26 1.75937e-26 4.08713e-26), No Iterations 122
cMinus: -2.33555e-07 .  Bounding.
maxResidual = 0.0152038

ExecutionTime = 19.23 s  ClockTime = 20 s

Time = 164

         Steady solver/PNP-NS Iteration      # 1
BiCGStab:  Solving for PNP, Initial residual = (0.00684384 0.0104589 7.62429e-15), Final residual = (2.59705e-26 3.96008e-26 8.15523e-26), No Iterations 120
maxResidual = 0.0104589

ExecutionTime = 19.34 s  ClockTime = 20 s

Time = 165

         Steady solver/PNP-NS Iteration      # 1
BiCGStab:  Solving for PNP, Initial residual = (0.0100907 0.0149841 1.12856e-14), Final residual = (2.23719e-26 3.40624e-26 7.0326e-26), No Iterations 121
cMinus: -2.0497e-07 .  Bounding.
maxResidual = 0.0149841

ExecutionTime = 19.46 s  ClockTime = 20 s

Time = 166

         Steady solver/PNP-NS Iteration      # 1
BiCGStab:  Solving for PNP, Initial residual = (0.00677557 0.0103526 7.71558e-15), Final residual = (1.51334e-26 2.30706e-26 4.72175e-26), No Iterations 121
maxResidual = 0.0103526

ExecutionTime = 19.57 s  ClockTime = 20 s

Time = 167

         Steady solver/PNP-NS Iteration      # 1
BiCGStab:  Solving for PNP, Initial residual = (0.00994524 0.0147708 1.14251e-14), Final residual = (2.09315e-26 3.1872e-26 6.73809e-26), No Iterations 121
cMinus: -1.76628e-07 .  Bounding.
maxResidual = 0.0147708

ExecutionTime = 19.69 s  ClockTime = 20 s

Time = 168

         Steady solver/PNP-NS Iteration      # 1
BiCGStab:  Solving for PNP, Initial residual = (0.00670867 0.0102486 7.67032e-15), Final residual = (1.89704e-26 2.89031e-26 5.90154e-26), No Iterations 123
maxResidual = 0.0102486

ExecutionTime = 19.8 s  ClockTime = 21 s

Time = 169

         Steady solver/PNP-NS Iteration      # 1
BiCGStab:  Solving for PNP, Initial residual = (0.00980393 0.0145636 1.14443e-14), Final residual = (1.35762e-26 2.06833e-26 4.46334e-26), No Iterations 124
cMinus: -1.73172e-07 .  Bounding.
maxResidual = 0.0145636

ExecutionTime = 19.92 s  ClockTime = 21 s

Time = 170

         Steady solver/PNP-NS Iteration      # 1
BiCGStab:  Solving for PNP, Initial residual = (0.0066431 0.0101466 7.62846e-15), Final residual = (2.71858e-26 4.1427e-26 8.48789e-26), No Iterations 130
maxResidual = 0.0101466

ExecutionTime = 20.06 s  ClockTime = 21 s

Time = 171

         Steady solver/PNP-NS Iteration      # 1
BiCGStab:  Solving for PNP, Initial residual = (0.00966661 0.0143621 1.11159e-14), Final residual = (2.34398e-26 3.57188e-26 7.3213e-26), No Iterations 126
cMinus: -1.71402e-07 .  Bounding.
maxResidual = 0.0143621

ExecutionTime = 20.18 s  ClockTime = 21 s

Time = 172

         Steady solver/PNP-NS Iteration      # 1
BiCGStab:  Solving for PNP, Initial residual = (0.00657878 0.0100467 7.51828e-15), Final residual = (6.13747e-27 9.36383e-27 1.93441e-26), No Iterations 124
maxResidual = 0.0100467

ExecutionTime = 20.29 s  ClockTime = 21 s

Time = 173

         Steady solver/PNP-NS Iteration      # 1
BiCGStab:  Solving for PNP, Initial residual = (0.00953303 0.014166 1.09936e-14), Final residual = (1.42783e-26 2.05783e-26 5.03523e-26), No Iterations 120
cMinus: -1.60079e-07 .  Bounding.
maxResidual = 0.014166

ExecutionTime = 20.41 s  ClockTime = 21 s

Time = 174

         Steady solver/PNP-NS Iteration      # 1
BiCGStab:  Solving for PNP, Initial residual = (0.00651566 0.00994864 7.55153e-15), Final residual = (1.8107e-26 2.7607e-26 5.6138e-26), No Iterations 118
maxResidual = 0.00994864

ExecutionTime = 20.52 s  ClockTime = 21 s

Time = 175

         Steady solver/PNP-NS Iteration      # 1
BiCGStab:  Solving for PNP, Initial residual = (0.00940302 0.013975 1.09458e-14), Final residual = (1.3104e-26 1.98585e-26 5.41611e-26), No Iterations 122
cMinus: -1.447e-07 .  Bounding.
maxResidual = 0.013975

ExecutionTime = 20.64 s  ClockTime = 21 s

Time = 176

         Steady solver/PNP-NS Iteration      # 1
BiCGStab:  Solving for PNP, Initial residual = (0.00645368 0.00985241 7.74862e-15), Final residual = (1.94803e-26 2.96855e-26 6.2033e-26), No Iterations 121
maxResidual = 0.00985241

ExecutionTime = 20.76 s  ClockTime = 21 s

Time = 177

         Steady solver/PNP-NS Iteration      # 1
BiCGStab:  Solving for PNP, Initial residual = (0.00927639 0.013789 1.09092e-14), Final residual = (2.07867e-26 3.16499e-26 6.54467e-26), No Iterations 116
cMinus: -1.28297e-07 .  Bounding.
maxResidual = 0.013789

ExecutionTime = 20.87 s  ClockTime = 22 s

Time = 178

         Steady solver/PNP-NS Iteration      # 1
BiCGStab:  Solving for PNP, Initial residual = (0.0063928 0.00975795 7.63663e-15), Final residual = (6.07122e-27 9.25067e-27 1.91445e-26), No Iterations 123
maxResidual = 0.00975795

ExecutionTime = 20.99 s  ClockTime = 22 s

Time = 179

         Steady solver/PNP-NS Iteration      # 1
BiCGStab:  Solving for PNP, Initial residual = (0.00915299 0.0136076 1.1277e-14), Final residual = (2.65354e-27 4.0406e-27 8.92765e-27), No Iterations 125
cMinus: -1.12309e-07 .  Bounding.
maxResidual = 0.0136076

ExecutionTime = 21.11 s  ClockTime = 22 s

Time = 180

         Steady solver/PNP-NS Iteration      # 1
BiCGStab:  Solving for PNP, Initial residual = (0.00633298 0.00966515 7.65119e-15), Final residual = (7.28116e-27 1.07213e-26 2.62952e-26), No Iterations 124
maxResidual = 0.00966515

ExecutionTime = 21.24 s  ClockTime = 22 s

Time = 181

         Steady solver/PNP-NS Iteration      # 1
BiCGStab:  Solving for PNP, Initial residual = (0.00903266 0.0134307 1.09373e-14), Final residual = (1.49259e-26 2.27434e-26 4.79319e-26), No Iterations 123
cMinus: -1.04826e-07 .  Bounding.
maxResidual = 0.0134307

ExecutionTime = 21.35 s  ClockTime = 22 s

Time = 182

         Steady solver/PNP-NS Iteration      # 1
BiCGStab:  Solving for PNP, Initial residual = (0.00627416 0.00957396 7.58195e-15), Final residual = (1.77994e-26 2.69267e-26 7.48986e-26), No Iterations 123
maxResidual = 0.00957396

ExecutionTime = 21.47 s  ClockTime = 22 s

Time = 183

         Steady solver/PNP-NS Iteration      # 1
BiCGStab:  Solving for PNP, Initial residual = (0.00891526 0.0132579 1.07853e-14), Final residual = (3.1891e-27 4.86065e-27 1.06001e-26), No Iterations 122
cMinus: -1.05746e-07 .  Bounding.
maxResidual = 0.0132579

ExecutionTime = 21.59 s  ClockTime = 22 s

Time = 184

         Steady solver/PNP-NS Iteration      # 1
BiCGStab:  Solving for PNP, Initial residual = (0.00621632 0.00948431 7.6501e-15), Final residual = (2.15871e-26 3.28987e-26 6.87424e-26), No Iterations 118
maxResidual = 0.00948431

ExecutionTime = 21.7 s  ClockTime = 22 s

Time = 185

         Steady solver/PNP-NS Iteration      # 1
BiCGStab:  Solving for PNP, Initial residual = (0.00880066 0.0130893 1.11075e-14), Final residual = (1.28475e-26 1.95791e-26 4.16434e-26), No Iterations 131
cMinus: -1.01131e-07 .  Bounding.
maxResidual = 0.0130893

ExecutionTime = 21.83 s  ClockTime = 23 s

Time = 186

         Steady solver/PNP-NS Iteration      # 1
BiCGStab:  Solving for PNP, Initial residual = (0.0061594 0.00939615 7.49303e-15), Final residual = (7.86442e-27 1.19604e-26 2.83035e-26), No Iterations 121
maxResidual = 0.00939615

ExecutionTime = 21.95 s  ClockTime = 23 s

Time = 187

         Steady solver/PNP-NS Iteration      # 1
BiCGStab:  Solving for PNP, Initial residual = (0.00868874 0.0129245 1.07247e-14), Final residual = (1.31064e-26 1.99489e-26 4.62438e-26), No Iterations 123
cMinus: -9.37062e-08 .  Bounding.
maxResidual = 0.0129245

ExecutionTime = 22.06 s  ClockTime = 23 s

Time = 188

         Steady solver/PNP-NS Iteration      # 1
BiCGStab:  Solving for PNP, Initial residual = (0.00610339 0.00930941 7.55406e-15), Final residual = (1.16074e-26 1.7687e-26 3.79596e-26), No Iterations 127
maxResidual = 0.00930941

ExecutionTime = 22.19 s  ClockTime = 23 s

Time = 189

         Steady solver/PNP-NS Iteration      # 1
BiCGStab:  Solving for PNP, Initial residual = (0.00857939 0.0127635 1.07576e-14), Final residual = (1.90267e-26 2.89929e-26 6.24265e-26), No Iterations 117
cMinus: -8.51121e-08 .  Bounding.
maxResidual = 0.0127635

ExecutionTime = 22.3 s  ClockTime = 23 s

Time = 190

         Steady solver/PNP-NS Iteration      # 1
BiCGStab:  Solving for PNP, Initial residual = (0.00604825 0.00922406 7.47891e-15), Final residual = (4.92239e-27 7.50067e-27 1.61331e-26), No Iterations 117
maxResidual = 0.00922406

ExecutionTime = 22.42 s  ClockTime = 23 s

Time = 191

         Steady solver/PNP-NS Iteration      # 1
BiCGStab:  Solving for PNP, Initial residual = (0.00847249 0.012606 1.05562e-14), Final residual = (1.43668e-26 2.18918e-26 4.73833e-26), No Iterations 124
cMinus: -7.63549e-08 .  Bounding.
maxResidual = 0.012606

ExecutionTime = 22.55 s  ClockTime = 23 s

Time = 192

         Steady solver/PNP-NS Iteration      # 1
BiCGStab:  Solving for PNP, Initial residual = (0.00599394 0.00914003 7.66846e-15), Final residual = (2.35827e-26 3.5875e-26 7.81951e-26), No Iterations 117
maxResidual = 0.00914003

ExecutionTime = 22.66 s  ClockTime = 23 s

Time = 193

         Steady solver/PNP-NS Iteration      # 1
BiCGStab:  Solving for PNP, Initial residual = (0.00836795 0.0124519 1.02604e-14), Final residual = (1.72769e-26 2.6262e-26 6.43749e-26), No Iterations 121
cMinus: -6.7884e-08 .  Bounding.
maxResidual = 0.0124519

ExecutionTime = 22.77 s  ClockTime = 24 s

Time = 194

         Steady solver/PNP-NS Iteration      # 1
BiCGStab:  Solving for PNP, Initial residual = (0.00594044 0.00905728 7.43472e-15), Final residual = (4.06454e-27 6.18989e-27 1.39851e-26), No Iterations 122
maxResidual = 0.00905728

ExecutionTime = 22.89 s  ClockTime = 24 s

Time = 195

         Steady solver/PNP-NS Iteration      # 1
BiCGStab:  Solving for PNP, Initial residual = (0.00826567 0.0123011 1.08215e-14), Final residual = (5.21292e-27 7.94458e-27 1.74232e-26), No Iterations 121
cMinus: -5.99862e-08 .  Bounding.
maxResidual = 0.0123011

ExecutionTime = 23 s  ClockTime = 24 s

Time = 196

         Steady solver/PNP-NS Iteration      # 1
BiCGStab:  Solving for PNP, Initial residual = (0.00588772 0.00897577 7.49996e-15), Final residual = (1.72111e-26 2.62298e-26 5.68089e-26), No Iterations 129
maxResidual = 0.00897577

ExecutionTime = 23.13 s  ClockTime = 24 s

Time = 197

         Steady solver/PNP-NS Iteration      # 1
BiCGStab:  Solving for PNP, Initial residual = (0.00816557 0.0121534 1.06244e-14), Final residual = (5.81211e-27 8.85176e-27 1.99219e-26), No Iterations 122
cMinus: -6.10492e-08 .  Bounding.
maxResidual = 0.0121534

ExecutionTime = 23.24 s  ClockTime = 24 s

Time = 198

         Steady solver/PNP-NS Iteration      # 1
BiCGStab:  Solving for PNP, Initial residual = (0.00583575 0.00889545 7.57722e-15), Final residual = (1.24314e-26 1.8881e-26 4.20233e-26), No Iterations 122
maxResidual = 0.00889545

ExecutionTime = 23.36 s  ClockTime = 24 s

Time = 199

         Steady solver/PNP-NS Iteration      # 1
BiCGStab:  Solving for PNP, Initial residual = (0.00806756 0.0120088 1.03618e-14), Final residual = (9.9733e-27 1.51861e-26 3.512e-26), No Iterations 130
cMinus: -5.97553e-08 .  Bounding.
maxResidual = 0.0120088

ExecutionTime = 23.48 s  ClockTime = 24 s

Time = 200

         Steady solver/PNP-NS Iteration      # 1
BiCGStab:  Solving for PNP, Initial residual = (0.00578452 0.0088163 7.34787e-15), Final residual = (1.17699e-26 1.7932e-26 3.96848e-26), No Iterations 113
maxResidual = 0.0088163

ExecutionTime = 23.6 s  ClockTime = 24 s

Time = 201

         Steady solver/PNP-NS Iteration      # 1
BiCGStab:  Solving for PNP, Initial residual = (0.00797157 0.0118671 1.03799e-14), Final residual = (1.18083e-26 1.79772e-26 4.10906e-26), No Iterations 114
cMinus: -5.67286e-08 .  Bounding.
maxResidual = 0.0118671

ExecutionTime = 23.72 s  ClockTime = 25 s

Time = 202

         Steady solver/PNP-NS Iteration      # 1
BiCGStab:  Solving for PNP, Initial residual = (0.00573399 0.00873827 7.45195e-15), Final residual = (5.73876e-27 8.85911e-27 2.63404e-26), No Iterations 121
maxResidual = 0.00873827

ExecutionTime = 23.83 s  ClockTime = 25 s

Time = 203

         Steady solver/PNP-NS Iteration      # 1
BiCGStab:  Solving for PNP, Initial residual = (0.00787752 0.0117283 1.00504e-14), Final residual = (1.31412e-26 1.99307e-26 5.98514e-26), No Iterations 121
cMinus: -5.27868e-08 .  Bounding.
maxResidual = 0.0117283

ExecutionTime = 23.94 s  ClockTime = 25 s

Time = 204

         Steady solver/PNP-NS Iteration      # 1
BiCGStab:  Solving for PNP, Initial residual = (0.00568416 0.00866133 7.25383e-15), Final residual = (7.79495e-27 1.18767e-26 2.70142e-26), No Iterations 119
maxResidual = 0.00866133

ExecutionTime = 24.05 s  ClockTime = 25 s

Time = 205

         Steady solver/PNP-NS Iteration      # 1
BiCGStab:  Solving for PNP, Initial residual = (0.00778534 0.0115921 1.03538e-14), Final residual = (1.1723e-26 1.78444e-26 4.50729e-26), No Iterations 114
cMinus: -4.84514e-08 .  Bounding.
maxResidual = 0.0115921

ExecutionTime = 24.17 s  ClockTime = 25 s

Time = 206

         Steady solver/PNP-NS Iteration      # 1
BiCGStab:  Solving for PNP, Initial residual = (0.00563499 0.00858545 7.21806e-15), Final residual = (1.70866e-26 2.60324e-26 5.97552e-26), No Iterations 118
maxResidual = 0.00858545

ExecutionTime = 24.28 s  ClockTime = 25 s

Time = 207

         Steady solver/PNP-NS Iteration      # 1
BiCGStab:  Solving for PNP, Initial residual = (0.00769496 0.0114586 1.03612e-14), Final residual = (7.41452e-27 1.12979e-26 2.44177e-26), No Iterations 118
cMinus: -4.40607e-08 .  Bounding.
maxResidual = 0.0114586

ExecutionTime = 24.4 s  ClockTime = 25 s

Time = 208

         Steady solver/PNP-NS Iteration      # 1
BiCGStab:  Solving for PNP, Initial residual = (0.00558648 0.0085106 7.36374e-15), Final residual = (9.84343e-27 1.50022e-26 3.399e-26), No Iterations 114
maxResidual = 0.0085106

ExecutionTime = 24.5 s  ClockTime = 25 s

Time = 209

         Steady solver/PNP-NS Iteration      # 1
BiCGStab:  Solving for PNP, Initial residual = (0.00760634 0.0113276 9.98835e-15), Final residual = (2.00974e-26 3.06179e-26 7.05375e-26), No Iterations 126
cMinus: -3.98114e-08 .  Bounding.
maxResidual = 0.0113276

ExecutionTime = 24.62 s  ClockTime = 25 s

Time = 210

         Steady solver/PNP-NS Iteration      # 1
BiCGStab:  Solving for PNP, Initial residual = (0.0055386 0.00843674 7.40995e-15), Final residual = (6.86039e-27 1.04447e-26 2.60384e-26), No Iterations 122
maxResidual = 0.00843674

ExecutionTime = 24.75 s  ClockTime = 26 s

Time = 211

         Steady solver/PNP-NS Iteration      # 1
BiCGStab:  Solving for PNP, Initial residual = (0.0075194 0.0111991 1.00795e-14), Final residual = (1.81486e-26 2.76442e-26 6.45562e-26), No Iterations 123
cMinus: -3.57929e-08 .  Bounding.
maxResidual = 0.0111991

ExecutionTime = 24.87 s  ClockTime = 26 s

Time = 212

         Steady solver/PNP-NS Iteration      # 1
BiCGStab:  Solving for PNP, Initial residual = (0.00549134 0.00836387 7.27445e-15), Final residual = (2.3218e-26 3.53651e-26 8.38124e-26), No Iterations 120
maxResidual = 0.00836387

ExecutionTime = 24.98 s  ClockTime = 26 s

Time = 213

         Steady solver/PNP-NS Iteration      # 1
BiCGStab:  Solving for PNP, Initial residual = (0.0074341 0.0110729 9.98509e-15), Final residual = (2.24928e-26 3.42627e-26 8.01294e-26), No Iterations 113
cMinus: -3.24967e-08 .  Bounding.
maxResidual = 0.0110729

ExecutionTime = 25.09 s  ClockTime = 26 s

Time = 214

         Steady solver/PNP-NS Iteration      # 1
BiCGStab:  Solving for PNP, Initial residual = (0.00544468 0.00829193 7.42113e-15), Final residual = (6.91978e-27 1.05421e-26 2.4593e-26), No Iterations 113
maxResidual = 0.00829193

ExecutionTime = 25.2 s  ClockTime = 26 s

Time = 215

         Steady solver/PNP-NS Iteration      # 1
BiCGStab:  Solving for PNP, Initial residual = (0.00735038 0.0109491 9.90905e-15), Final residual = (2.21906e-26 3.38107e-26 7.83232e-26), No Iterations 120
cMinus: -3.28477e-08 .  Bounding.
maxResidual = 0.0109491

ExecutionTime = 25.32 s  ClockTime = 26 s

Time = 216

         Steady solver/PNP-NS Iteration      # 1
BiCGStab:  Solving for PNP, Initial residual = (0.00539861 0.00822093 7.13658e-15), Final residual = (1.44761e-26 2.20591e-26 5.08314e-26), No Iterations 122
maxResidual = 0.00822093

ExecutionTime = 25.44 s  ClockTime = 26 s

Time = 217

         Steady solver/PNP-NS Iteration      # 1
BiCGStab:  Solving for PNP, Initial residual = (0.00726819 0.0108275 9.82441e-15), Final residual = (6.56944e-27 1.00072e-26 2.37627e-26), No Iterations 121
cMinus: -3.21211e-08 .  Bounding.
maxResidual = 0.0108275

ExecutionTime = 25.56 s  ClockTime = 26 s

Time = 218

         Steady solver/PNP-NS Iteration      # 1
BiCGStab:  Solving for PNP, Initial residual = (0.00535311 0.00815082 7.11583e-15), Final residual = (1.56496e-26 2.37951e-26 6.32472e-26), No Iterations 121
maxResidual = 0.00815082

ExecutionTime = 25.67 s  ClockTime = 27 s

Time = 219

         Steady solver/PNP-NS Iteration      # 1
BiCGStab:  Solving for PNP, Initial residual = (0.00718748 0.010708 9.81985e-15), Final residual = (2.34124e-26 3.56714e-26 8.39028e-26), No Iterations 119
cMinus: -3.07258e-08 .  Bounding.
maxResidual = 0.010708

ExecutionTime = 25.79 s  ClockTime = 27 s

Time = 220

         Steady solver/PNP-NS Iteration      # 1
BiCGStab:  Solving for PNP, Initial residual = (0.00530817 0.0080816 7.26952e-15), Final residual = (1.65775e-26 2.52503e-26 6.0184e-26), No Iterations 130
maxResidual = 0.0080816

ExecutionTime = 25.92 s  ClockTime = 27 s

Time = 221

         Steady solver/PNP-NS Iteration      # 1
BiCGStab:  Solving for PNP, Initial residual = (0.00710822 0.0105907 9.69007e-15), Final residual = (1.44645e-26 2.20393e-26 5.16202e-26), No Iterations 120
cMinus: -2.89429e-08 .  Bounding.
maxResidual = 0.0105907

ExecutionTime = 26.04 s  ClockTime = 27 s

Time = 222

         Steady solver/PNP-NS Iteration      # 1
BiCGStab:  Solving for PNP, Initial residual = (0.00526378 0.00801324 7.1165e-15), Final residual = (2.16522e-26 3.29475e-26 8.75126e-26), No Iterations 116
maxResidual = 0.00801324

ExecutionTime = 26.16 s  ClockTime = 27 s

Time = 223

         Steady solver/PNP-NS Iteration      # 1
BiCGStab:  Solving for PNP, Initial residual = (0.00703035 0.0104754 9.85638e-15), Final residual = (1.57832e-26 2.40003e-26 6.51535e-26), No Iterations 120
cMinus: -2.69639e-08 .  Bounding.
maxResidual = 0.0104754

ExecutionTime = 26.27 s  ClockTime = 27 s

Time = 224

         Steady solver/PNP-NS Iteration      # 1
BiCGStab:  Solving for PNP, Initial residual = (0.00521992 0.00794571 7.2664e-15), Final residual = (1.64407e-26 2.49797e-26 7.09874e-26), No Iterations 116
maxResidual = 0.00794571

ExecutionTime = 26.38 s  ClockTime = 27 s

Time = 225

         Steady solver/PNP-NS Iteration      # 1
BiCGStab:  Solving for PNP, Initial residual = (0.00695384 0.010362 9.66266e-15), Final residual = (2.0018e-26 3.04968e-26 7.35046e-26), No Iterations 112
cMinus: -2.49172e-08 .  Bounding.
maxResidual = 0.010362

ExecutionTime = 26.49 s  ClockTime = 27 s

Time = 226

         Steady solver/PNP-NS Iteration      # 1
BiCGStab:  Solving for PNP, Initial residual = (0.00517659 0.00787901 7.33497e-15), Final residual = (1.64582e-26 2.50728e-26 6.05609e-26), No Iterations 120
maxResidual = 0.00787901

ExecutionTime = 26.6 s  ClockTime = 27 s

Time = 227

         Steady solver/PNP-NS Iteration      # 1
BiCGStab:  Solving for PNP, Initial residual = (0.00687865 0.0102506 9.79875e-15), Final residual = (2.12292e-26 3.23454e-26 7.75903e-26), No Iterations 120
cMinus: -2.28873e-08 .  Bounding.
maxResidual = 0.0102506

ExecutionTime = 26.72 s  ClockTime = 28 s

Time = 228

         Steady solver/PNP-NS Iteration      # 1
BiCGStab:  Solving for PNP, Initial residual = (0.00513377 0.00781312 7.30037e-15), Final residual = (2.32633e-26 3.54269e-26 8.81662e-26), No Iterations 121
maxResidual = 0.00781312

ExecutionTime = 26.83 s  ClockTime = 28 s

Time = 229

         Steady solver/PNP-NS Iteration      # 1
BiCGStab:  Solving for PNP, Initial residual = (0.00680474 0.0101411 9.72449e-15), Final residual = (1.99157e-26 3.03264e-26 8.01746e-26), No Iterations 113
cMinus: -2.09355e-08 .  Bounding.
maxResidual = 0.0101411

ExecutionTime = 26.95 s  ClockTime = 28 s

Time = 230

         Steady solver/PNP-NS Iteration      # 1
BiCGStab:  Solving for PNP, Initial residual = (0.00509145 0.00774801 7.04396e-15), Final residual = (2.29233e-26 3.49249e-26 8.46188e-26), No Iterations 116
maxResidual = 0.00774801

ExecutionTime = 27.08 s  ClockTime = 28 s

Time = 231

         Steady solver/PNP-NS Iteration      # 1
BiCGStab:  Solving for PNP, Initial residual = (0.00673208 0.0100334 9.65763e-15), Final residual = (1.23406e-26 1.87601e-26 5.21607e-26), No Iterations 113
cMinus: -1.90877e-08 .  Bounding.
maxResidual = 0.0100334

ExecutionTime = 27.2 s  ClockTime = 28 s

Time = 232

         Steady solver/PNP-NS Iteration      # 1
BiCGStab:  Solving for PNP, Initial residual = (0.00504962 0.00768367 7.19446e-15), Final residual = (2.2722e-26 3.45804e-26 8.81919e-26), No Iterations 113
maxResidual = 0.00768367

ExecutionTime = 27.31 s  ClockTime = 28 s

Time = 233

         Steady solver/PNP-NS Iteration      # 1
BiCGStab:  Solving for PNP, Initial residual = (0.00666065 0.00992746 9.76606e-15), Final residual = (1.92929e-26 2.93884e-26 7.32032e-26), No Iterations 120
cMinus: -1.73576e-08 .  Bounding.
maxResidual = 0.00992746

ExecutionTime = 27.43 s  ClockTime = 28 s

Time = 234

         Steady solver/PNP-NS Iteration      # 1
BiCGStab:  Solving for PNP, Initial residual = (0.00500828 0.00762009 7.13187e-15), Final residual = (1.68849e-26 2.57233e-26 6.31557e-26), No Iterations 122
maxResidual = 0.00762009

ExecutionTime = 27.55 s  ClockTime = 28 s

Time = 235

         Steady solver/PNP-NS Iteration      # 1
BiCGStab:  Solving for PNP, Initial residual = (0.00659039 0.00982326 9.73743e-15), Final residual = (1.96686e-26 2.99283e-26 8.20288e-26), No Iterations 119
cMinus: -1.64942e-08 .  Bounding.
maxResidual = 0.00982326

ExecutionTime = 27.67 s  ClockTime = 29 s

Time = 236

         Steady solver/PNP-NS Iteration      # 1
BiCGStab:  Solving for PNP, Initial residual = (0.00496741 0.00755725 7.27078e-15), Final residual = (1.14858e-26 1.74805e-26 4.65198e-26), No Iterations 119
maxResidual = 0.00755725

ExecutionTime = 27.8 s  ClockTime = 29 s

Time = 237

         Steady solver/PNP-NS Iteration      # 1
BiCGStab:  Solving for PNP, Initial residual = (0.00652128 0.00972074 9.2223e-15), Final residual = (1.60426e-26 2.44211e-26 6.44723e-26), No Iterations 119
cMinus: -1.64128e-08 .  Bounding.
maxResidual = 0.00972074

ExecutionTime = 27.91 s  ClockTime = 29 s

Time = 238

         Steady solver/PNP-NS Iteration      # 1
BiCGStab:  Solving for PNP, Initial residual = (0.00492701 0.00749514 7.05603e-15), Final residual = (1.86715e-26 2.83792e-26 8.45715e-26), No Iterations 118
maxResidual = 0.00749514

ExecutionTime = 28.03 s  ClockTime = 29 s

Time = 239

         Steady solver/PNP-NS Iteration      # 1
BiCGStab:  Solving for PNP, Initial residual = (0.0064533 0.00961987 9.44234e-15), Final residual = (1.62006e-26 2.46374e-26 6.9002e-26), No Iterations 118
cMinus: -1.59984e-08 .  Bounding.
maxResidual = 0.00961987

ExecutionTime = 28.15 s  ClockTime = 29 s

Time = 240

         Steady solver/PNP-NS Iteration      # 1
BiCGStab:  Solving for PNP, Initial residual = (0.00488706 0.00743374 7.0799e-15), Final residual = (2.23928e-26 3.40876e-26 8.73602e-26), No Iterations 118
maxResidual = 0.00743374

ExecutionTime = 28.28 s  ClockTime = 29 s

Time = 241

         Steady solver/PNP-NS Iteration      # 1
BiCGStab:  Solving for PNP, Initial residual = (0.00638641 0.0095206 9.37458e-15), Final residual = (2.14612e-26 3.26961e-26 8.13801e-26), No Iterations 112
cMinus: -1.53653e-08 .  Bounding.
maxResidual = 0.0095206

ExecutionTime = 28.39 s  ClockTime = 29 s

Time = 242

         Steady solver/PNP-NS Iteration      # 1
BiCGStab:  Solving for PNP, Initial residual = (0.00484757 0.00737305 7.11936e-15), Final residual = (1.65222e-26 2.51524e-26 6.40413e-26), No Iterations 117
maxResidual = 0.00737305

ExecutionTime = 28.51 s  ClockTime = 29 s

Time = 243

         Steady solver/PNP-NS Iteration      # 1
BiCGStab:  Solving for PNP, Initial residual = (0.00632058 0.00942289 9.38894e-15), Final residual = (1.44145e-26 2.19554e-26 5.57239e-26), No Iterations 118
cMinus: -1.45965e-08 .  Bounding.
maxResidual = 0.00942289

ExecutionTime = 28.63 s  ClockTime = 30 s

Time = 244

         Steady solver/PNP-NS Iteration      # 1
BiCGStab:  Solving for PNP, Initial residual = (0.00480851 0.00731304 7.16551e-15), Final residual = (2.11963e-26 3.22528e-26 8.64984e-26), No Iterations 116
maxResidual = 0.00731304

ExecutionTime = 28.75 s  ClockTime = 30 s

Time = 245

         Steady solver/PNP-NS Iteration      # 1
BiCGStab:  Solving for PNP, Initial residual = (0.0062558 0.0093267 9.22742e-15), Final residual = (2.22932e-26 3.39425e-26 9.09978e-26), No Iterations 120
cMinus: -1.37518e-08 .  Bounding.
maxResidual = 0.0093267

ExecutionTime = 28.87 s  ClockTime = 30 s

Time = 246

         Steady solver/PNP-NS Iteration      # 1
BiCGStab:  Solving for PNP, Initial residual = (0.00476989 0.00725371 7.18237e-15), Final residual = (1.71584e-26 2.6127e-26 7.12867e-26), No Iterations 116
maxResidual = 0.00725371

ExecutionTime = 28.98 s  ClockTime = 30 s

Time = 247

         Steady solver/PNP-NS Iteration      # 1
BiCGStab:  Solving for PNP, Initial residual = (0.00619203 0.00923201 1.27846e-14), Final residual = (1.97696e-26 3.01029e-26 7.85224e-26), No Iterations 124
cMinus: -1.28737e-08 .  Bounding.
maxResidual = 0.00923201

ExecutionTime = 29.11 s  ClockTime = 30 s

Time = 248

         Steady solver/PNP-NS Iteration      # 1
BiCGStab:  Solving for PNP, Initial residual = (0.0047317 0.00719505 6.95658e-15), Final residual = (1.35179e-26 2.05913e-26 5.27647e-26), No Iterations 121
maxResidual = 0.00719505

ExecutionTime = 29.22 s  ClockTime = 30 s

Time = 249

         Steady solver/PNP-NS Iteration      # 1
BiCGStab:  Solving for PNP, Initial residual = (0.00612925 0.00913877 9.22358e-15), Final residual = (1.77602e-26 2.70552e-26 6.98868e-26), No Iterations 118
cMinus: -1.19922e-08 .  Bounding.
maxResidual = 0.00913877

ExecutionTime = 29.34 s  ClockTime = 30 s

Time = 250

         Steady solver/PNP-NS Iteration      # 1
BiCGStab:  Solving for PNP, Initial residual = (0.00469392 0.00713704 7.29605e-15), Final residual = (2.12079e-26 3.2286e-26 8.51467e-26), No Iterations 118
maxResidual = 0.00713704

ExecutionTime = 29.48 s  ClockTime = 30 s

Time = 251

         Steady solver/PNP-NS Iteration      # 1
BiCGStab:  Solving for PNP, Initial residual = (0.00606744 0.00904696 8.95325e-15), Final residual = (1.47264e-26 2.23834e-26 6.43644e-26), No Iterations 119
cMinus: -1.11279e-08 .  Bounding.
maxResidual = 0.00904696

ExecutionTime = 29.6 s  ClockTime = 31 s

Time = 252

         Steady solver/PNP-NS Iteration      # 1
BiCGStab:  Solving for PNP, Initial residual = (0.00465656 0.00707967 7.07819e-15), Final residual = (9.05191e-27 1.37644e-26 3.92636e-26), No Iterations 121
maxResidual = 0.00707967

ExecutionTime = 29.72 s  ClockTime = 31 s

Time = 253

         Steady solver/PNP-NS Iteration      # 1
BiCGStab:  Solving for PNP, Initial residual = (0.00600657 0.00895653 8.84478e-15), Final residual = (1.21675e-26 1.85379e-26 4.73289e-26), No Iterations 119
cMinus: -1.02944e-08 .  Bounding.
maxResidual = 0.00895653

ExecutionTime = 29.84 s  ClockTime = 31 s

Time = 254

         Steady solver/PNP-NS Iteration      # 1
BiCGStab:  Solving for PNP, Initial residual = (0.00461961 0.00702294 7.01731e-15), Final residual = (1.11292e-26 1.69492e-26 4.55334e-26), No Iterations 120
maxResidual = 0.00702294

ExecutionTime = 29.96 s  ClockTime = 31 s

Time = 255

         Steady solver/PNP-NS Iteration      # 1
BiCGStab:  Solving for PNP, Initial residual = (0.00594663 0.00886746 8.96138e-15), Final residual = (2.17818e-26 3.31859e-26 8.3189e-26), No Iterations 119
cMinus: -9.50059e-09 .  Bounding.
maxResidual = 0.00886746

ExecutionTime = 30.07 s  ClockTime = 31 s

Time = 256

         Steady solver/PNP-NS Iteration      # 1
BiCGStab:  Solving for PNP, Initial residual = (0.00458305 0.00696683 7.04961e-15), Final residual = (9.9651e-27 1.51038e-26 5.15906e-26), No Iterations 111
maxResidual = 0.00696683

ExecutionTime = 30.18 s  ClockTime = 31 s

Time = 257

         Steady solver/PNP-NS Iteration      # 1
BiCGStab:  Solving for PNP, Initial residual = (0.00588759 0.00877972 9.00703e-15), Final residual = (1.8718e-26 2.85067e-26 7.57527e-26), No Iterations 121
cMinus: -8.75507e-09 .  Bounding.
maxResidual = 0.00877972

ExecutionTime = 30.31 s  ClockTime = 31 s

Time = 258

         Steady solver/PNP-NS Iteration      # 1
BiCGStab:  Solving for PNP, Initial residual = (0.00454689 0.00691133 7.0075e-15), Final residual = (1.15078e-26 1.75268e-26 4.70579e-26), No Iterations 120
maxResidual = 0.00691133

ExecutionTime = 30.43 s  ClockTime = 31 s

Time = 259

         Steady solver/PNP-NS Iteration      # 1
BiCGStab:  Solving for PNP, Initial residual = (0.00582944 0.00869329 8.90887e-15), Final residual = (1.1816e-26 1.79864e-26 4.93632e-26), No Iterations 128
cMinus: -8.0558e-09 .  Bounding.
maxResidual = 0.00869329

ExecutionTime = 30.56 s  ClockTime = 32 s

Time = 260

         Steady solver/PNP-NS Iteration      # 1
BiCGStab:  Solving for PNP, Initial residual = (0.00451112 0.00685644 6.90732e-15), Final residual = (5.14968e-27 7.82899e-27 2.39212e-26), No Iterations 114
maxResidual = 0.00685644

ExecutionTime = 30.68 s  ClockTime = 32 s

Time = 261

         Steady solver/PNP-NS Iteration      # 1
BiCGStab:  Solving for PNP, Initial residual = (0.00577214 0.00860812 8.88133e-15), Final residual = (1.87496e-26 2.85601e-26 7.593e-26), No Iterations 120
cMinus: -7.68603e-09 .  Bounding.
maxResidual = 0.00860812

ExecutionTime = 30.8 s  ClockTime = 32 s

Time = 262

         Steady solver/PNP-NS Iteration      # 1
BiCGStab:  Solving for PNP, Initial residual = (0.00447573 0.00680214 6.92028e-15), Final residual = (9.98617e-27 1.51929e-26 4.49293e-26), No Iterations 115
maxResidual = 0.00680214

ExecutionTime = 30.92 s  ClockTime = 32 s

Time = 263

[...]
cMinus: -1.18285e-16 .  Bounding.
maxResidual = 0.000189286

ExecutionTime = 204.01 s  ClockTime = 210 s

Time = 1937

         Steady solver/PNP-NS Iteration      # 1
BiCGStab:  Solving for PNP, Initial residual = (0.000131628 0.000192065 6.11449e-15), Final residual = (4.35014e-27 6.53709e-27 5.72921e-26), No Iterations 103
maxResidual = 0.000192065

ExecutionTime = 204.12 s  ClockTime = 211 s

Time = 1938

         Steady solver/PNP-NS Iteration      # 1
BiCGStab:  Solving for PNP, Initial residual = (0.000129341 0.000188758 5.95586e-15), Final residual = (6.25404e-27 9.4786e-27 7.82297e-26), No Iterations 100
cMinus: -1.17561e-16 .  Bounding.
maxResidual = 0.000188758

ExecutionTime = 204.21 s  ClockTime = 211 s

Time = 1939

         Steady solver/PNP-NS Iteration      # 1
BiCGStab:  Solving for PNP, Initial residual = (0.000131261 0.000191524 6.07615e-15), Final residual = (7.7317e-27 1.17299e-26 8.77363e-26), No Iterations 99
maxResidual = 0.000191524

ExecutionTime = 204.31 s  ClockTime = 211 s

Time = 1940

         Steady solver/PNP-NS Iteration      # 1
BiCGStab:  Solving for PNP, Initial residual = (0.000128985 0.000188232 6.1292e-15), Final residual = (7.80319e-27 1.18022e-26 7.70277e-26), No Iterations 99
cMinus: -1.16839e-16 .  Bounding.
maxResidual = 0.000188232

ExecutionTime = 204.42 s  ClockTime = 211 s

Time = 1941

         Steady solver/PNP-NS Iteration      # 1
BiCGStab:  Solving for PNP, Initial residual = (0.000130896 0.000190983 6.17377e-15), Final residual = (7.56648e-27 1.14997e-26 7.5197e-26), No Iterations 100
maxResidual = 0.000190983

ExecutionTime = 204.52 s  ClockTime = 211 s

Time = 1942

         Steady solver/PNP-NS Iteration      # 1
BiCGStab:  Solving for PNP, Initial residual = (0.00012863 0.000187707 6.16456e-15), Final residual = (7.19415e-27 1.09163e-26 7.96887e-26), No Iterations 103
cMinus: -1.16118e-16 .  Bounding.
maxResidual = 0.000187707

ExecutionTime = 204.62 s  ClockTime = 211 s

Time = 1943

         Steady solver/PNP-NS Iteration      # 1
BiCGStab:  Solving for PNP, Initial residual = (0.000130531 0.000190445 6.07677e-15), Final residual = (5.01209e-27 7.61362e-27 5.08913e-26), No Iterations 101
maxResidual = 0.000190445

ExecutionTime = 204.73 s  ClockTime = 211 s

Time = 1944

         Steady solver/PNP-NS Iteration      # 1
BiCGStab:  Solving for PNP, Initial residual = (0.000128276 0.000187185 6.11096e-15), Final residual = (8.74734e-27 1.32836e-26 8.79147e-26), No Iterations 103
cMinus: -1.15399e-16 .  Bounding.
maxResidual = 0.000187185

ExecutionTime = 204.84 s  ClockTime = 211 s

Time = 1945

         Steady solver/PNP-NS Iteration      # 1
BiCGStab:  Solving for PNP, Initial residual = (0.000130168 0.000189909 6.1797e-15), Final residual = (4.10417e-27 6.23086e-27 4.26525e-26), No Iterations 101
maxResidual = 0.000189909

ExecutionTime = 204.93 s  ClockTime = 211 s

Time = 1946

         Steady solver/PNP-NS Iteration      # 1
BiCGStab:  Solving for PNP, Initial residual = (0.000127923 0.000186663 6.01496e-15), Final residual = (3.37945e-27 5.10303e-27 4.04917e-26), No Iterations 100
cMinus: -1.14682e-16 .  Bounding.
maxResidual = 0.000186663

ExecutionTime = 205.02 s  ClockTime = 211 s

Time = 1947

         Steady solver/PNP-NS Iteration      # 1
BiCGStab:  Solving for PNP, Initial residual = (0.000129806 0.000189374 6.10481e-15), Final residual = (4.1093e-27 6.24068e-27 4.10448e-26), No Iterations 101
maxResidual = 0.000189374

ExecutionTime = 205.12 s  ClockTime = 212 s

Time = 1948

         Steady solver/PNP-NS Iteration      # 1
BiCGStab:  Solving for PNP, Initial residual = (0.000127572 0.000186144 6.07295e-15), Final residual = (2.75492e-27 4.17604e-27 3.47321e-26), No Iterations 100
cMinus: -1.13966e-16 .  Bounding.
maxResidual = 0.000186144

ExecutionTime = 205.22 s  ClockTime = 212 s

Time = 1949

         Steady solver/PNP-NS Iteration      # 1
BiCGStab:  Solving for PNP, Initial residual = (0.000129445 0.000188841 6.15685e-15), Final residual = (3.62863e-27 5.4334e-27 4.26981e-26), No Iterations 100
maxResidual = 0.000188841

ExecutionTime = 205.32 s  ClockTime = 212 s

Time = 1950

         Steady solver/PNP-NS Iteration      # 1
BiCGStab:  Solving for PNP, Initial residual = (0.000127221 0.000185626 6.25556e-15), Final residual = (3.43475e-27 5.22444e-27 3.20283e-26), No Iterations 101
cMinus: -1.13251e-16 .  Bounding.
maxResidual = 0.000185626

ExecutionTime = 205.43 s  ClockTime = 212 s

Time = 1951

         Steady solver/PNP-NS Iteration      # 1
BiCGStab:  Solving for PNP, Initial residual = (0.000129085 0.000188309 6.12137e-15), Final residual = (6.88852e-27 1.03761e-26 9.30695e-26), No Iterations 99
maxResidual = 0.000188309

ExecutionTime = 205.53 s  ClockTime = 212 s

Time = 1952

         Steady solver/PNP-NS Iteration      # 1
BiCGStab:  Solving for PNP, Initial residual = (0.000126872 0.00018511 5.94041e-15), Final residual = (6.43068e-27 9.63786e-27 8.45789e-26), No Iterations 101
cMinus: -1.12538e-16 .  Bounding.
maxResidual = 0.00018511

ExecutionTime = 205.63 s  ClockTime = 212 s

Time = 1953

         Steady solver/PNP-NS Iteration      # 1
BiCGStab:  Solving for PNP, Initial residual = (0.000128726 0.00018778 6.0705e-15), Final residual = (5.57864e-27 8.48198e-27 5.32806e-26), No Iterations 101
maxResidual = 0.00018778

ExecutionTime = 205.73 s  ClockTime = 212 s

Time = 1954

         Steady solver/PNP-NS Iteration      # 1
BiCGStab:  Solving for PNP, Initial residual = (0.000126524 0.000184596 5.95529e-15), Final residual = (2.75675e-27 4.18346e-27 2.63176e-26), No Iterations 101
cMinus: -1.11826e-16 .  Bounding.
maxResidual = 0.000184596

ExecutionTime = 205.83 s  ClockTime = 212 s

Time = 1955

         Steady solver/PNP-NS Iteration      # 1
BiCGStab:  Solving for PNP, Initial residual = (0.000128369 0.000187252 6.09477e-15), Final residual = (4.65281e-27 7.05896e-27 4.79153e-26), No Iterations 99
maxResidual = 0.000187252

ExecutionTime = 205.93 s  ClockTime = 212 s

Time = 1956

         Steady solver/PNP-NS Iteration      # 1
BiCGStab:  Solving for PNP, Initial residual = (0.000126177 0.000184083 6.10319e-15), Final residual = (8.9903e-27 1.3502e-26 8.97825e-26), No Iterations 101
cMinus: -1.11116e-16 .  Bounding.
maxResidual = 0.000184083

ExecutionTime = 206.02 s  ClockTime = 212 s

Time = 1957

         Steady solver/PNP-NS Iteration      # 1
BiCGStab:  Solving for PNP, Initial residual = (0.000128012 0.000186726 6.03517e-15), Final residual = (9.37565e-27 1.42471e-26 9.41873e-26), No Iterations 101
maxResidual = 0.000186726

ExecutionTime = 206.12 s  ClockTime = 213 s

Time = 1958

         Steady solver/PNP-NS Iteration      # 1
BiCGStab:  Solving for PNP, Initial residual = (0.000125831 0.000183572 5.91886e-15), Final residual = (9.8841e-27 1.50254e-26 9.7338e-26), No Iterations 102
cMinus: -1.10408e-16 .  Bounding.
maxResidual = 0.000183572

ExecutionTime = 206.22 s  ClockTime = 213 s

Time = 1959

         Steady solver/PNP-NS Iteration      # 1
BiCGStab:  Solving for PNP, Initial residual = (0.000127657 0.000186201 5.95846e-15), Final residual = (1.031e-26 1.56872e-26 9.62014e-26), No Iterations 103
maxResidual = 0.000186201

ExecutionTime = 206.32 s  ClockTime = 213 s

Time = 1960

         Steady solver/PNP-NS Iteration      # 1
BiCGStab:  Solving for PNP, Initial residual = (0.000125486 0.000183063 5.93249e-15), Final residual = (7.23219e-27 1.09794e-26 7.505e-26), No Iterations 102
cMinus: -1.09701e-16 .  Bounding.
maxResidual = 0.000183063

ExecutionTime = 206.43 s  ClockTime = 213 s

Time = 1961

         Steady solver/PNP-NS Iteration      # 1
BiCGStab:  Solving for PNP, Initial residual = (0.000127303 0.000185679 6.10229e-15), Final residual = (6.21921e-27 9.42442e-27 7.20786e-26), No Iterations 100
maxResidual = 0.000185679

ExecutionTime = 206.52 s  ClockTime = 213 s

Time = 1962

         Steady solver/PNP-NS Iteration      # 1
BiCGStab:  Solving for PNP, Initial residual = (0.000125142 0.000182555 6.00921e-15), Final residual = (3.20459e-27 4.86156e-27 3.55716e-26), No Iterations 101
cMinus: -1.08995e-16 .  Bounding.
maxResidual = 0.000182555

ExecutionTime = 206.62 s  ClockTime = 213 s

Time = 1963

         Steady solver/PNP-NS Iteration      # 1
BiCGStab:  Solving for PNP, Initial residual = (0.00012695 0.000185158 6.07069e-15), Final residual = (5.35941e-27 8.1158e-27 6.439e-26), No Iterations 99
maxResidual = 0.000185158

ExecutionTime = 206.72 s  ClockTime = 213 s

Time = 1964

         Steady solver/PNP-NS Iteration      # 1
BiCGStab:  Solving for PNP, Initial residual = (0.0001248 0.000182049 5.85558e-15), Final residual = (3.12727e-27 4.74043e-27 3.45424e-26), No Iterations 101
cMinus: -1.08291e-16 .  Bounding.
maxResidual = 0.000182049

ExecutionTime = 206.81 s  ClockTime = 213 s

Time = 1965

         Steady solver/PNP-NS Iteration      # 1
BiCGStab:  Solving for PNP, Initial residual = (0.000126598 0.000184638 6.06443e-15), Final residual = (9.28242e-27 1.41021e-26 9.36193e-26), No Iterations 100
maxResidual = 0.000184638

ExecutionTime = 206.91 s  ClockTime = 213 s

Time = 1966

         Steady solver/PNP-NS Iteration      # 1
BiCGStab:  Solving for PNP, Initial residual = (0.000124458 0.000181544 6.02993e-15), Final residual = (2.47111e-27 3.70422e-27 3.57186e-26), No Iterations 101
cMinus: -1.07588e-16 .  Bounding.
maxResidual = 0.000181544

ExecutionTime = 207.01 s  ClockTime = 213 s

Time = 1967

         Steady solver/PNP-NS Iteration      # 1
BiCGStab:  Solving for PNP, Initial residual = (0.000126248 0.000184121 6.12857e-15), Final residual = (2.59106e-27 3.93733e-27 2.65935e-26), No Iterations 101
maxResidual = 0.000184121

ExecutionTime = 207.11 s  ClockTime = 214 s

Time = 1968

         Steady solver/PNP-NS Iteration      # 1
BiCGStab:  Solving for PNP, Initial residual = (0.000124117 0.000181041 5.98489e-15), Final residual = (2.39407e-27 3.62579e-27 2.58312e-26), No Iterations 101
cMinus: -1.06887e-16 .  Bounding.
maxResidual = 0.000181041

ExecutionTime = 207.2 s  ClockTime = 214 s

Time = 1969

         Steady solver/PNP-NS Iteration      # 1
BiCGStab:  Solving for PNP, Initial residual = (0.000125898 0.000183605 6.27192e-15), Final residual = (6.45292e-27 9.77457e-27 7.13566e-26), No Iterations 99
maxResidual = 0.000183605

ExecutionTime = 207.3 s  ClockTime = 214 s

Time = 1970

         Steady solver/PNP-NS Iteration      # 1
BiCGStab:  Solving for PNP, Initial residual = (0.000123778 0.00018054 6.04927e-15), Final residual = (4.40463e-27 6.66954e-27 5.04329e-26), No Iterations 101
cMinus: -1.06188e-16 .  Bounding.
maxResidual = 0.00018054

ExecutionTime = 207.41 s  ClockTime = 214 s

Time = 1971

         Steady solver/PNP-NS Iteration      # 1
BiCGStab:  Solving for PNP, Initial residual = (0.00012555 0.00018309 6.09002e-15), Final residual = (4.56877e-27 6.94202e-27 4.52714e-26), No Iterations 101
maxResidual = 0.00018309

ExecutionTime = 207.5 s  ClockTime = 214 s

Time = 1972

         Steady solver/PNP-NS Iteration      # 1
BiCGStab:  Solving for PNP, Initial residual = (0.00012344 0.00018004 6.11438e-15), Final residual = (5.32949e-27 8.10871e-27 4.86767e-26), No Iterations 99
cMinus: -1.0549e-16 .  Bounding.
maxResidual = 0.00018004

ExecutionTime = 207.59 s  ClockTime = 214 s

Time = 1973

         Steady solver/PNP-NS Iteration      # 1
BiCGStab:  Solving for PNP, Initial residual = (0.000125203 0.000182578 6.03519e-15), Final residual = (4.32623e-27 6.56431e-27 4.50894e-26), No Iterations 101
maxResidual = 0.000182578

ExecutionTime = 207.69 s  ClockTime = 214 s

Time = 1974

         Steady solver/PNP-NS Iteration      # 1
BiCGStab:  Solving for PNP, Initial residual = (0.000123102 0.000179542 6.04394e-15), Final residual = (3.75499e-27 5.70968e-27 3.30005e-26), No Iterations 101
cMinus: -1.04793e-16 .  Bounding.
maxResidual = 0.000179542

ExecutionTime = 207.78 s  ClockTime = 214 s

Time = 1975

         Steady solver/PNP-NS Iteration      # 1
BiCGStab:  Solving for PNP, Initial residual = (0.000124856 0.000182067 6.21192e-15), Final residual = (2.78619e-27 4.22334e-27 2.7826e-26), No Iterations 101
maxResidual = 0.000182067

ExecutionTime = 207.89 s  ClockTime = 214 s

Time = 1976

         Steady solver/PNP-NS Iteration      # 1
BiCGStab:  Solving for PNP, Initial residual = (0.000122766 0.000179045 5.91509e-15), Final residual = (2.67492e-27 3.96194e-27 3.38763e-26), No Iterations 101
cMinus: -1.04098e-16 .  Bounding.
maxResidual = 0.000179045

ExecutionTime = 208.01 s  ClockTime = 215 s

Time = 1977

         Steady solver/PNP-NS Iteration      # 1
BiCGStab:  Solving for PNP, Initial residual = (0.000124511 0.000181557 6.19057e-15), Final residual = (5.22173e-27 7.9412e-27 5.01534e-26), No Iterations 101
maxResidual = 0.000181557

ExecutionTime = 208.12 s  ClockTime = 215 s

Time = 1978

         Steady solver/PNP-NS Iteration      # 1
BiCGStab:  Solving for PNP, Initial residual = (0.000122431 0.00017855 5.98826e-15), Final residual = (5.05064e-27 7.63451e-27 5.06472e-26), No Iterations 101
cMinus: -1.03404e-16 .  Bounding.
maxResidual = 0.00017855

ExecutionTime = 208.23 s  ClockTime = 215 s

Time = 1979

         Steady solver/PNP-NS Iteration      # 1
BiCGStab:  Solving for PNP, Initial residual = (0.000124167 0.00018105 6.29362e-15), Final residual = (3.31713e-27 5.04386e-27 3.10348e-26), No Iterations 101
maxResidual = 0.00018105

ExecutionTime = 208.35 s  ClockTime = 215 s

Time = 1980

         Steady solver/PNP-NS Iteration      # 1
BiCGStab:  Solving for PNP, Initial residual = (0.000122097 0.000178057 6.04196e-15), Final residual = (2.8748e-27 4.3309e-27 3.08319e-26), No Iterations 101
cMinus: -1.02712e-16 .  Bounding.
maxResidual = 0.000178057

ExecutionTime = 208.48 s  ClockTime = 215 s

Time = 1981

         Steady solver/PNP-NS Iteration      # 1
BiCGStab:  Solving for PNP, Initial residual = (0.000123825 0.000180544 6.19186e-15), Final residual = (2.94749e-27 4.46612e-27 3.55084e-26), No Iterations 102
maxResidual = 0.000180544

ExecutionTime = 208.57 s  ClockTime = 215 s

Time = 1982

         Steady solver/PNP-NS Iteration      # 1
BiCGStab:  Solving for PNP, Initial residual = (0.000121764 0.000177565 6.24637e-15), Final residual = (3.44173e-27 5.22802e-27 3.46656e-26), No Iterations 101
cMinus: -1.02021e-16 .  Bounding.
maxResidual = 0.000177565

ExecutionTime = 208.67 s  ClockTime = 215 s

Time = 1983

         Steady solver/PNP-NS Iteration      # 1
BiCGStab:  Solving for PNP, Initial residual = (0.000123483 0.000180039 6.17428e-15), Final residual = (4.09749e-27 6.19449e-27 5.21245e-26), No Iterations 104
maxResidual = 0.000180039

ExecutionTime = 208.77 s  ClockTime = 215 s

Time = 1984

         Steady solver/PNP-NS Iteration      # 1
BiCGStab:  Solving for PNP, Initial residual = (0.000121432 0.000177075 6.05152e-15), Final residual = (6.43625e-27 9.76183e-27 7.93404e-26), No Iterations 101
cMinus: -1.01332e-16 .  Bounding.
maxResidual = 0.000177075

ExecutionTime = 208.88 s  ClockTime = 215 s

Time = 1985

         Steady solver/PNP-NS Iteration      # 1
BiCGStab:  Solving for PNP, Initial residual = (0.000123142 0.000179537 6.22052e-15), Final residual = (2.17231e-27 3.30537e-27 2.03396e-26), No Iterations 101
maxResidual = 0.000179537

ExecutionTime = 208.98 s  ClockTime = 216 s

Time = 1986

         Steady solver/PNP-NS Iteration      # 1
BiCGStab:  Solving for PNP, Initial residual = (0.000121101 0.000176586 5.91084e-15), Final residual = (2.69404e-27 4.03806e-27 3.33569e-26), No Iterations 101
cMinus: -1.00644e-16 .  Bounding.
maxResidual = 0.000176586

ExecutionTime = 209.08 s  ClockTime = 216 s

Time = 1987

         Steady solver/PNP-NS Iteration      # 1
BiCGStab:  Solving for PNP, Initial residual = (0.000122803 0.000179036 6.18947e-15), Final residual = (1.73934e-27 2.63106e-27 1.86998e-26), No Iterations 103
maxResidual = 0.000179036

ExecutionTime = 209.18 s  ClockTime = 216 s

Time = 1988

         Steady solver/PNP-NS Iteration      # 1
BiCGStab:  Solving for PNP, Initial residual = (0.000120771 0.000176099 6.00847e-15), Final residual = (7.84691e-27 1.19108e-26 7.84173e-26), No Iterations 101
cMinus: -9.99579e-17 .  Bounding.
maxResidual = 0.000176099

ExecutionTime = 209.29 s  ClockTime = 216 s

Time = 1989

         Steady solver/PNP-NS Iteration      # 1
BiCGStab:  Solving for PNP, Initial residual = (0.000122464 0.000178536 6.09573e-15), Final residual = (6.56694e-27 9.96578e-27 6.53026e-26), No Iterations 101
maxResidual = 0.000178536

ExecutionTime = 209.38 s  ClockTime = 216 s

Time = 1990

         Steady solver/PNP-NS Iteration      # 1
BiCGStab:  Solving for PNP, Initial residual = (0.000120442 0.000175613 5.91443e-15), Final residual = (3.05451e-27 4.63767e-27 3.30553e-26), No Iterations 101
cMinus: -9.9273e-17 .  Bounding.
maxResidual = 0.000175613

ExecutionTime = 209.5 s  ClockTime = 216 s

Time = 1991

         Steady solver/PNP-NS Iteration      # 1
BiCGStab:  Solving for PNP, Initial residual = (0.000122127 0.000178038 5.97747e-15), Final residual = (2.06259e-27 3.12012e-27 2.41093e-26), No Iterations 101
maxResidual = 0.000178038

ExecutionTime = 209.62 s  ClockTime = 216 s

Time = 1992

         Steady solver/PNP-NS Iteration      # 1
BiCGStab:  Solving for PNP, Initial residual = (0.000120114 0.000175129 6.00416e-15), Final residual = (3.24791e-27 4.93115e-27 3.57601e-26), No Iterations 101
cMinus: -9.85896e-17 .  Bounding.
maxResidual = 0.000175129

ExecutionTime = 209.72 s  ClockTime = 216 s

Time = 1993

         Steady solver/PNP-NS Iteration      # 1
BiCGStab:  Solving for PNP, Initial residual = (0.00012179 0.000177542 6.04116e-15), Final residual = (6.91583e-27 1.05077e-26 7.20491e-26), No Iterations 101
maxResidual = 0.000177542

ExecutionTime = 209.81 s  ClockTime = 216 s

Time = 1994

         Steady solver/PNP-NS Iteration      # 1
BiCGStab:  Solving for PNP, Initial residual = (0.000119787 0.000174647 6.02e-15), Final residual = (3.78165e-27 5.74792e-27 3.7068e-26), No Iterations 101
cMinus: -9.79076e-17 .  Bounding.
maxResidual = 0.000174647

ExecutionTime = 209.91 s  ClockTime = 216 s

Time = 1995

         Steady solver/PNP-NS Iteration      # 1
BiCGStab:  Solving for PNP, Initial residual = (0.000121455 0.000177047 6.13453e-15), Final residual = (4.92446e-27 7.49057e-27 4.30276e-26), No Iterations 101
maxResidual = 0.000177047

ExecutionTime = 210 s  ClockTime = 217 s

Time = 1996

         Steady solver/PNP-NS Iteration      # 1
BiCGStab:  Solving for PNP, Initial residual = (0.000119461 0.000174166 6.24045e-15), Final residual = (7.69632e-27 1.1653e-26 7.49129e-26), No Iterations 99
cMinus: -9.7227e-17 .  Bounding.
maxResidual = 0.000174166

ExecutionTime = 210.1 s  ClockTime = 217 s

Time = 1997

         Steady solver/PNP-NS Iteration      # 1
BiCGStab:  Solving for PNP, Initial residual = (0.000121121 0.000176554 6.01158e-15), Final residual = (1.01538e-26 1.54447e-26 9.52863e-26), No Iterations 99
maxResidual = 0.000176554

ExecutionTime = 210.2 s  ClockTime = 217 s

Time = 1998

         Steady solver/PNP-NS Iteration      # 1
BiCGStab:  Solving for PNP, Initial residual = (0.000119136 0.000173686 5.94018e-15), Final residual = (4.98377e-27 7.5724e-27 4.99535e-26), No Iterations 101
cMinus: -9.65479e-17 .  Bounding.
maxResidual = 0.000173686

ExecutionTime = 210.29 s  ClockTime = 217 s

Time = 1999

         Steady solver/PNP-NS Iteration      # 1
BiCGStab:  Solving for PNP, Initial residual = (0.000120788 0.000176062 6.10008e-15), Final residual = (3.98602e-27 6.03998e-27 4.61107e-26), No Iterations 99
maxResidual = 0.000176062

ExecutionTime = 210.4 s  ClockTime = 217 s

Time = 2000

         Steady solver/PNP-NS Iteration      # 1
BiCGStab:  Solving for PNP, Initial residual = (0.000118812 0.000173208 5.86158e-15), Final residual = (4.09601e-27 6.22764e-27 3.98929e-26), No Iterations 101
cMinus: -9.58702e-17 .  Bounding.
maxResidual = 0.000173208

ExecutionTime = 210.53 s  ClockTime = 217 s

End

