/*---------------------------------------------------------------------------*\
| =========                 |                                                 |
| \\      /  F ield         | foam-extend: Open Source CFD                    |
|  \\    /   O peration     | Version:     4.0                                |
|   \\  /    A nd           | Web:         http://www.foam-extend.org         |
|    \\/     M anipulation  | For copyright notice see file Copyright         |
\*---------------------------------------------------------------------------*/
Build    : 4.0-268bb07d15d8
Exec     : PNPnonDFoam
Date     : Mar 14 2024
Time     : 12:50:44
Host     : sh-Precision-7920-Tower
PID      : 12280
CtrlDict : "/media/sh/drive1/NextFoam/tutorials/Coupled/2D_example_steady_PNPnonD/system/controlDict"
Case     : /media/sh/drive1/NextFoam/tutorials/Coupled/2D_example_steady_PNPnonD
nProcs   : 1
SigFpe   : Enabling floating point exception trapping (FOAM_SIGFPE).

// * * * * * * * * * * * * * * * * * * * * * * * * * * * * * * * * * * * * * //
Create time

--> FOAM Warning : 
    From function dlLibraryTable::open(const fileName& functionLibName)
    in file db/dlLibraryTable/dlLibraryTable.C at line 124
    could not load libslipEOF.so: cannot open shared object file: No such file or directory
Create mesh for time = 0

Reading field psiE

Reading field psiI

Reading field cPlus

Reading field cMinus

Reading transportProperties

****************************************************************

Scale Parameters
****************************************************************
Average-diffusivity's value: 3.36e-09 [0 2 -1 0 0 0 0]
Time-scale's value: 0.0297619 [0 0 1 0 0 0 0]
Potential-scale's value: 0.025852 [1 2 -3 0 0 -1 0]
Velocity-scale's value: 4.73398e-05 [0 1 -1 0 0 0 0]
pressure-scale's value: 4.73398e-06 [0 2 -2 0 0 0 0]
Debye-Length's value: 9.74139e-09 [0 1 0 0 0 0 0]
Dimensionless diffusion coefficient DPlus_nonD: 0.395833
Dimensionless diffusion coefficient DMinus_nonD: 0.604167
Dimensionless Debye-Length: 0.000974139
Schmidt Number: 297.619
Reynold Number: 0.000473398
Pelec Number: 0.140892
****************************************************************
Reading field psiEGrad

Reading field phiE

Reading field DPlusphiE

Reading field DMinusphiE

Reading field phiDcPlus

Reading field phiDcMinus

Reading field netCharge

Creating field PNP


Starting time loop


Starting time loop

Time = 1

         Steady solver/PNP-NS Iteration      # 1
zeroIonicFlux_nonD ############################
BiCGStab:  Solving for PNP, Initial residual = (0.450596 0.687752 0.569174), Final residual = (2.64011e-26 4.02812e-26 6.66816e-26), No Iterations 112
maxResidual = 0.687752

ExecutionTime = 0.17 s  ClockTime = 0 s

Time = 2

         Steady solver/PNP-NS Iteration      # 1
zeroIonicFlux_nonD ############################
BiCGStab:  Solving for PNP, Initial residual = (0.0222765 0.0352043 5.09535e-15), Final residual = (2.16713e-26 3.30739e-26 5.47472e-26), No Iterations 108
maxResidual = 0.0352043

ExecutionTime = 0.27 s  ClockTime = 0 s

Time = 3

         Steady solver/PNP-NS Iteration      # 1
zeroIonicFlux_nonD ############################
BiCGStab:  Solving for PNP, Initial residual = (0.224711 0.336762 3.84775e-14), Final residual = (1.94516e-26 2.99888e-26 4.93515e-26), No Iterations 109
maxResidual = 0.336762

ExecutionTime = 0.37 s  ClockTime = 0 s

Time = 4

         Steady solver/PNP-NS Iteration      # 1
zeroIonicFlux_nonD ############################
BiCGStab:  Solving for PNP, Initial residual = (0.0219054 0.0340879 4.30942e-15), Final residual = (2.64727e-26 4.04046e-26 6.68816e-26), No Iterations 108
maxResidual = 0.0340879

ExecutionTime = 0.49 s  ClockTime = 0 s

Time = 5

         Steady solver/PNP-NS Iteration      # 1
zeroIonicFlux_nonD ############################
BiCGStab:  Solving for PNP, Initial residual = (0.157393 0.234031 2.41111e-14), Final residual = (1.74563e-26 2.66455e-26 4.41049e-26), No Iterations 107
maxResidual = 0.234031

ExecutionTime = 0.59 s  ClockTime = 0 s

Time = 6

         Steady solver/PNP-NS Iteration      # 1
zeroIonicFlux_nonD ############################
BiCGStab:  Solving for PNP, Initial residual = (0.0211765 0.0326988 4.68376e-15), Final residual = (2.06611e-27 3.15362e-27 5.22026e-27), No Iterations 111
maxResidual = 0.0326988

ExecutionTime = 0.69 s  ClockTime = 0 s

Time = 7

         Steady solver/PNP-NS Iteration      # 1
zeroIonicFlux_nonD ############################
BiCGStab:  Solving for PNP, Initial residual = (0.125683 0.188217 1.86873e-14), Final residual = (7.35099e-27 1.12211e-26 1.85752e-26), No Iterations 108
maxResidual = 0.188217

ExecutionTime = 0.8 s  ClockTime = 1 s

Time = 8

         Steady solver/PNP-NS Iteration      # 1
zeroIonicFlux_nonD ############################
BiCGStab:  Solving for PNP, Initial residual = (0.0204269 0.0315471 4.79753e-15), Final residual = (2.72492e-26 4.15869e-26 6.88616e-26), No Iterations 105
maxResidual = 0.0315471

ExecutionTime = 0.9 s  ClockTime = 1 s

Time = 9

         Steady solver/PNP-NS Iteration      # 1
zeroIonicFlux_nonD ############################
BiCGStab:  Solving for PNP, Initial residual = (0.108259 0.16337 1.86416e-14), Final residual = (8.23711e-27 1.25735e-26 2.08139e-26), No Iterations 108
maxResidual = 0.16337

ExecutionTime = 0.99 s  ClockTime = 1 s

Time = 10

         Steady solver/PNP-NS Iteration      # 1
zeroIonicFlux_nonD ############################
BiCGStab:  Solving for PNP, Initial residual = (0.019805 0.0306352 4.39547e-15), Final residual = (1.34392e-26 2.05112e-26 3.3962e-26), No Iterations 108
maxResidual = 0.0306352

ExecutionTime = 1.1 s  ClockTime = 1 s

Time = 11

         Steady solver/PNP-NS Iteration      # 1
zeroIonicFlux_nonD ############################
BiCGStab:  Solving for PNP, Initial residual = (0.0967816 0.146461 1.72838e-14), Final residual = (2.40922e-26 3.67749e-26 6.08838e-26), No Iterations 107
maxResidual = 0.146461

ExecutionTime = 1.2 s  ClockTime = 1 s

Time = 12

         Steady solver/PNP-NS Iteration      # 1
zeroIonicFlux_nonD ############################
BiCGStab:  Solving for PNP, Initial residual = (0.0192898 0.0298684 4.3536e-15), Final residual = (2.39371e-26 3.65305e-26 6.05205e-26), No Iterations 108
maxResidual = 0.0298684

ExecutionTime = 1.31 s  ClockTime = 1 s

Time = 13

         Steady solver/PNP-NS Iteration      # 1
zeroIonicFlux_nonD ############################
BiCGStab:  Solving for PNP, Initial residual = (0.0883269 0.133789 1.55725e-14), Final residual = (2.45953e-26 3.75427e-26 6.21588e-26), No Iterations 113
maxResidual = 0.133789

ExecutionTime = 1.43 s  ClockTime = 1 s

Time = 14

         Steady solver/PNP-NS Iteration      # 1
zeroIonicFlux_nonD ############################
BiCGStab:  Solving for PNP, Initial residual = (0.0188442 0.0291963 4.40958e-15), Final residual = (2.85238e-26 4.35317e-26 7.22654e-26), No Iterations 108
maxResidual = 0.0291963

ExecutionTime = 1.53 s  ClockTime = 1 s

Time = 15

         Steady solver/PNP-NS Iteration      # 1
zeroIonicFlux_nonD ############################
BiCGStab:  Solving for PNP, Initial residual = (0.0816793 0.123741 1.45425e-14), Final residual = (2.25777e-26 3.44628e-26 5.70605e-26), No Iterations 107
maxResidual = 0.123741

ExecutionTime = 1.63 s  ClockTime = 1 s

Time = 16

         Steady solver/PNP-NS Iteration      # 1
zeroIonicFlux_nonD ############################
BiCGStab:  Solving for PNP, Initial residual = (0.0184465 0.0285917 4.37068e-15), Final residual = (1.11432e-26 1.70076e-26 2.81677e-26), No Iterations 107
maxResidual = 0.0285917

ExecutionTime = 1.73 s  ClockTime = 1 s

Time = 17

         Steady solver/PNP-NS Iteration      # 1
zeroIonicFlux_nonD ############################
BiCGStab:  Solving for PNP, Initial residual = (0.076227 0.115463 1.4476e-14), Final residual = (2.82101e-26 4.30601e-26 7.12967e-26), No Iterations 107
maxResidual = 0.115463

ExecutionTime = 1.83 s  ClockTime = 2 s

Time = 18

         Steady solver/PNP-NS Iteration      # 1
zeroIonicFlux_nonD ############################
BiCGStab:  Solving for PNP, Initial residual = (0.0180838 0.0280377 4.27209e-15), Final residual = (2.09207e-26 3.19261e-26 5.29231e-26), No Iterations 107
maxResidual = 0.0280377

ExecutionTime = 1.93 s  ClockTime = 2 s

Time = 19

         Steady solver/PNP-NS Iteration      # 1
zeroIonicFlux_nonD ############################
BiCGStab:  Solving for PNP, Initial residual = (0.0717138 0.108454 1.41274e-14), Final residual = (1.53856e-26 2.34866e-26 3.89151e-26), No Iterations 109
maxResidual = 0.108454

ExecutionTime = 2.04 s  ClockTime = 2 s

Time = 20

         Steady solver/PNP-NS Iteration      # 1
zeroIonicFlux_nonD ############################
BiCGStab:  Solving for PNP, Initial residual = (0.0177486 0.0275232 4.30618e-15), Final residual = (1.78221e-26 2.72235e-26 4.62428e-26), No Iterations 104
maxResidual = 0.0275232

ExecutionTime = 2.15 s  ClockTime = 2 s

Time = 21

         Steady solver/PNP-NS Iteration      # 1
zeroIonicFlux_nonD ############################
BiCGStab:  Solving for PNP, Initial residual = (0.0678521 0.102395 1.37866e-14), Final residual = (1.48143e-26 2.26126e-26 3.74455e-26), No Iterations 107
maxResidual = 0.102395

ExecutionTime = 2.26 s  ClockTime = 2 s

Time = 22

         Steady solver/PNP-NS Iteration      # 1
zeroIonicFlux_nonD ############################
BiCGStab:  Solving for PNP, Initial residual = (0.017435 0.0270411 7.42475e-15), Final residual = (2.79706e-26 4.26902e-26 7.06999e-26), No Iterations 112
maxResidual = 0.0270411

ExecutionTime = 2.36 s  ClockTime = 2 s

Time = 23

         Steady solver/PNP-NS Iteration      # 1
zeroIonicFlux_nonD ############################
BiCGStab:  Solving for PNP, Initial residual = (0.0644441 0.0970725 1.32894e-14), Final residual = (2.7143e-26 4.14312e-26 6.86096e-26), No Iterations 108
maxResidual = 0.0970725

ExecutionTime = 2.46 s  ClockTime = 2 s

Time = 24

         Steady solver/PNP-NS Iteration      # 1
zeroIonicFlux_nonD ############################
BiCGStab:  Solving for PNP, Initial residual = (0.017139 0.0265854 4.43148e-15), Final residual = (1.40881e-26 2.1504e-26 3.56197e-26), No Iterations 108
maxResidual = 0.0265854

ExecutionTime = 2.56 s  ClockTime = 2 s

Time = 25

         Steady solver/PNP-NS Iteration      # 1
zeroIonicFlux_nonD ############################
BiCGStab:  Solving for PNP, Initial residual = (0.0613993 0.0923362 1.37949e-14), Final residual = (2.01151e-26 3.07036e-26 5.0878e-26), No Iterations 108
maxResidual = 0.0923362

ExecutionTime = 2.67 s  ClockTime = 2 s

Time = 26

         Steady solver/PNP-NS Iteration      # 1
zeroIonicFlux_nonD ############################
BiCGStab:  Solving for PNP, Initial residual = (0.0168577 0.0261519 4.64449e-15), Final residual = (2.20911e-26 3.37161e-26 5.58638e-26), No Iterations 105
maxResidual = 0.0261519

ExecutionTime = 2.79 s  ClockTime = 3 s

Time = 27

         Steady solver/PNP-NS Iteration      # 1
zeroIonicFlux_nonD ############################
BiCGStab:  Solving for PNP, Initial residual = (0.0586521 0.0880773 1.34223e-14), Final residual = (7.01464e-27 1.0708e-26 1.77692e-26), No Iterations 107
maxResidual = 0.0880773

ExecutionTime = 2.88 s  ClockTime = 3 s

Time = 28

         Steady solver/PNP-NS Iteration      # 1
zeroIonicFlux_nonD ############################
BiCGStab:  Solving for PNP, Initial residual = (0.016589 0.0257374 4.64074e-15), Final residual = (6.7547e-27 1.0276e-26 1.83207e-26), No Iterations 109
maxResidual = 0.0257374

ExecutionTime = 2.99 s  ClockTime = 3 s

Time = 29

         Steady solver/PNP-NS Iteration      # 1
zeroIonicFlux_nonD ############################
BiCGStab:  Solving for PNP, Initial residual = (0.0561526 0.0842145 1.36633e-14), Final residual = (2.22659e-26 3.39862e-26 5.63306e-26), No Iterations 108
maxResidual = 0.0842145

ExecutionTime = 3.09 s  ClockTime = 3 s

Time = 30

         Steady solver/PNP-NS Iteration      # 1
zeroIonicFlux_nonD ############################
BiCGStab:  Solving for PNP, Initial residual = (0.016331 0.0253394 4.56174e-15), Final residual = (1.14628e-26 1.74958e-26 2.90833e-26), No Iterations 114
maxResidual = 0.0253394

ExecutionTime = 3.2 s  ClockTime = 3 s

Time = 31

         Steady solver/PNP-NS Iteration      # 1
zeroIonicFlux_nonD ############################
BiCGStab:  Solving for PNP, Initial residual = (0.0538628 0.0806852 1.34236e-14), Final residual = (1.66453e-26 2.54073e-26 4.21016e-26), No Iterations 108
maxResidual = 0.0806852

ExecutionTime = 3.3 s  ClockTime = 3 s

Time = 32

         Steady solver/PNP-NS Iteration      # 1
zeroIonicFlux_nonD ############################
BiCGStab:  Solving for PNP, Initial residual = (0.0160825 0.0249558 4.60815e-15), Final residual = (6.88567e-27 1.05087e-26 1.74084e-26), No Iterations 117
maxResidual = 0.0249558

ExecutionTime = 3.42 s  ClockTime = 3 s

Time = 33

         Steady solver/PNP-NS Iteration      # 1
zeroIonicFlux_nonD ############################
BiCGStab:  Solving for PNP, Initial residual = (0.0517527 0.0774409 1.32894e-14), Final residual = (2.85037e-26 4.35113e-26 7.21584e-26), No Iterations 110
maxResidual = 0.0774409

ExecutionTime = 3.52 s  ClockTime = 3 s

Time = 34

         Steady solver/PNP-NS Iteration      # 1
zeroIonicFlux_nonD ############################
BiCGStab:  Solving for PNP, Initial residual = (0.0158424 0.024585 4.86873e-15), Final residual = (4.76589e-27 7.27431e-27 1.20491e-26), No Iterations 117
maxResidual = 0.024585

ExecutionTime = 3.63 s  ClockTime = 3 s

Time = 35

         Steady solver/PNP-NS Iteration      # 1
zeroIonicFlux_nonD ############################
BiCGStab:  Solving for PNP, Initial residual = (0.0497983 0.0744425 1.44012e-14), Final residual = (2.98924e-26 4.56287e-26 7.55747e-26), No Iterations 106
maxResidual = 0.0744425

ExecutionTime = 3.73 s  ClockTime = 4 s

Time = 36

         Steady solver/PNP-NS Iteration      # 1
zeroIonicFlux_nonD ############################
BiCGStab:  Solving for PNP, Initial residual = (0.0156098 0.0242257 4.88701e-15), Final residual = (1.75923e-26 2.685e-26 4.44874e-26), No Iterations 120
maxResidual = 0.0242257

ExecutionTime = 3.85 s  ClockTime = 4 s

Time = 37

         Steady solver/PNP-NS Iteration      # 1
zeroIonicFlux_nonD ############################
BiCGStab:  Solving for PNP, Initial residual = (0.0479801 0.0716587 1.29964e-14), Final residual = (3.03813e-26 4.63734e-26 7.68319e-26), No Iterations 107
maxResidual = 0.0716587

ExecutionTime = 3.95 s  ClockTime = 4 s

Time = 38

         Steady solver/PNP-NS Iteration      # 1
zeroIonicFlux_nonD ############################
BiCGStab:  Solving for PNP, Initial residual = (0.0153839 0.0238768 4.8983e-15), Final residual = (6.13816e-27 9.36708e-27 1.5518e-26), No Iterations 109
maxResidual = 0.0238768

ExecutionTime = 4.06 s  ClockTime = 4 s

Time = 39

         Steady solver/PNP-NS Iteration      # 1
zeroIonicFlux_nonD ############################
BiCGStab:  Solving for PNP, Initial residual = (0.046282 0.0690637 1.36044e-14), Final residual = (2.4872e-26 3.7968e-26 6.30042e-26), No Iterations 107
maxResidual = 0.0690637

ExecutionTime = 4.16 s  ClockTime = 4 s

Time = 40

         Steady solver/PNP-NS Iteration      # 1
zeroIonicFlux_nonD ############################
BiCGStab:  Solving for PNP, Initial residual = (0.0151641 0.0235372 5.09022e-15), Final residual = (2.57856e-26 3.93606e-26 6.54886e-26), No Iterations 112
maxResidual = 0.0235372

ExecutionTime = 4.28 s  ClockTime = 4 s

Time = 41

         Steady solver/PNP-NS Iteration      # 1
zeroIonicFlux_nonD ############################
BiCGStab:  Solving for PNP, Initial residual = (0.0446908 0.0666359 1.37048e-14), Final residual = (2.5776e-26 3.93452e-26 6.5174e-26), No Iterations 108
maxResidual = 0.0666359

ExecutionTime = 4.38 s  ClockTime = 4 s

Time = 42

         Steady solver/PNP-NS Iteration      # 1
zeroIonicFlux_nonD ############################
BiCGStab:  Solving for PNP, Initial residual = (0.01495 0.0232063 5.01947e-15), Final residual = (2.36148e-26 3.60688e-26 5.97641e-26), No Iterations 111
maxResidual = 0.0232063

ExecutionTime = 4.48 s  ClockTime = 4 s

Time = 43

         Steady solver/PNP-NS Iteration      # 1
zeroIonicFlux_nonD ############################
BiCGStab:  Solving for PNP, Initial residual = (0.0431951 0.0643575 1.33382e-14), Final residual = (2.30782e-26 3.52319e-26 5.85469e-26), No Iterations 108
maxResidual = 0.0643575

ExecutionTime = 4.58 s  ClockTime = 4 s

Time = 44

         Steady solver/PNP-NS Iteration      # 1
zeroIonicFlux_nonD ############################
BiCGStab:  Solving for PNP, Initial residual = (0.014741 0.0228834 5.03758e-15), Final residual = (3.37402e-27 5.14674e-27 8.52909e-27), No Iterations 118
maxResidual = 0.0228834

ExecutionTime = 4.69 s  ClockTime = 5 s

Time = 45

         Steady solver/PNP-NS Iteration      # 1
zeroIonicFlux_nonD ############################
BiCGStab:  Solving for PNP, Initial residual = (0.0417854 0.0622132 1.29001e-14), Final residual = (7.68681e-27 1.17327e-26 1.94812e-26), No Iterations 108
maxResidual = 0.0622132

ExecutionTime = 4.8 s  ClockTime = 5 s

Time = 46

         Steady solver/PNP-NS Iteration      # 1
zeroIonicFlux_nonD ############################
BiCGStab:  Solving for PNP, Initial residual = (0.0145368 0.0225678 5.07362e-15), Final residual = (2.98811e-26 4.54168e-26 7.55256e-26), No Iterations 108
maxResidual = 0.0225678

ExecutionTime = 4.9 s  ClockTime = 5 s

Time = 47

         Steady solver/PNP-NS Iteration      # 1
zeroIonicFlux_nonD ############################
BiCGStab:  Solving for PNP, Initial residual = (0.0404569 0.0601898 1.32146e-14), Final residual = (2.99221e-26 4.56778e-26 7.56669e-26), No Iterations 113
maxResidual = 0.0601898

ExecutionTime = 5.01 s  ClockTime = 5 s

Time = 48

         Steady solver/PNP-NS Iteration      # 1
zeroIonicFlux_nonD ############################
BiCGStab:  Solving for PNP, Initial residual = (0.014337 0.022259 5.10276e-15), Final residual = (2.62297e-26 4.00327e-26 6.63775e-26), No Iterations 110
maxResidual = 0.022259

ExecutionTime = 5.11 s  ClockTime = 5 s

Time = 49

         Steady solver/PNP-NS Iteration      # 1
zeroIonicFlux_nonD ############################
BiCGStab:  Solving for PNP, Initial residual = (0.0392015 0.0582759 1.25339e-14), Final residual = (2.42039e-26 3.6943e-26 6.12674e-26), No Iterations 108
maxResidual = 0.0582759

ExecutionTime = 5.22 s  ClockTime = 5 s

Time = 50

         Steady solver/PNP-NS Iteration      # 1
zeroIonicFlux_nonD ############################
BiCGStab:  Solving for PNP, Initial residual = (0.0141414 0.0219566 5.3201e-15), Final residual = (2.2545e-26 3.44123e-26 5.70706e-26), No Iterations 108
maxResidual = 0.0219566

ExecutionTime = 5.33 s  ClockTime = 5 s

Time = 51

         Steady solver/PNP-NS Iteration      # 1
zeroIonicFlux_nonD ############################
BiCGStab:  Solving for PNP, Initial residual = (0.0380096 0.0564618 1.29459e-14), Final residual = (2.45887e-26 3.75289e-26 6.23677e-26), No Iterations 112
maxResidual = 0.0564618

ExecutionTime = 5.44 s  ClockTime = 5 s

Time = 52

         Steady solver/PNP-NS Iteration      # 1
zeroIonicFlux_nonD ############################
BiCGStab:  Solving for PNP, Initial residual = (0.0139496 0.02166 5.50136e-15), Final residual = (2.11047e-26 3.21904e-26 5.33964e-26), No Iterations 107
maxResidual = 0.02166

ExecutionTime = 5.55 s  ClockTime = 5 s

Time = 53

         Steady solver/PNP-NS Iteration      # 1
zeroIonicFlux_nonD ############################
BiCGStab:  Solving for PNP, Initial residual = (0.0368758 0.0547387 1.34693e-14), Final residual = (1.62359e-26 2.47898e-26 4.11152e-26), No Iterations 109
maxResidual = 0.0547387

ExecutionTime = 5.65 s  ClockTime = 5 s

Time = 54

         Steady solver/PNP-NS Iteration      # 1
zeroIonicFlux_nonD ############################
BiCGStab:  Solving for PNP, Initial residual = (0.0137611 0.0213682 5.46788e-15), Final residual = (1.87474e-26 2.84562e-26 4.7539e-26), No Iterations 115
maxResidual = 0.0213682

ExecutionTime = 5.75 s  ClockTime = 6 s

Time = 55

         Steady solver/PNP-NS Iteration      # 1
zeroIonicFlux_nonD ############################
BiCGStab:  Solving for PNP, Initial residual = (0.0357924 0.0530952 1.31994e-14), Final residual = (2.11763e-26 3.23231e-26 5.39238e-26), No Iterations 110
maxResidual = 0.0530952

ExecutionTime = 5.86 s  ClockTime = 6 s

Time = 56

         Steady solver/PNP-NS Iteration      # 1
zeroIonicFlux_nonD ############################
BiCGStab:  Solving for PNP, Initial residual = (0.0135755 0.0210805 5.574e-15), Final residual = (2.75195e-26 4.20131e-26 6.98794e-26), No Iterations 112
maxResidual = 0.0210805

ExecutionTime = 5.97 s  ClockTime = 6 s

Time = 57

         Steady solver/PNP-NS Iteration      # 1
zeroIonicFlux_nonD ############################
BiCGStab:  Solving for PNP, Initial residual = (0.0347544 0.0515232 1.26507e-14), Final residual = (1.04389e-26 1.59333e-26 2.64289e-26), No Iterations 112
maxResidual = 0.0515232

ExecutionTime = 6.07 s  ClockTime = 6 s

Time = 58

         Steady solver/PNP-NS Iteration      # 1
zeroIonicFlux_nonD ############################
BiCGStab:  Solving for PNP, Initial residual = (0.0133926 0.0207969 5.87756e-15), Final residual = (2.36696e-26 3.61241e-26 5.98419e-26), No Iterations 116
maxResidual = 0.0207969

ExecutionTime = 6.19 s  ClockTime = 6 s

Time = 59

         Steady solver/PNP-NS Iteration      # 1
zeroIonicFlux_nonD ############################
BiCGStab:  Solving for PNP, Initial residual = (0.033759 0.050018 1.23226e-14), Final residual = (2.71241e-26 4.14036e-26 6.87575e-26), No Iterations 108
maxResidual = 0.050018

ExecutionTime = 6.29 s  ClockTime = 6 s

Time = 60

         Steady solver/PNP-NS Iteration      # 1
zeroIonicFlux_nonD ############################
BiCGStab:  Solving for PNP, Initial residual = (0.0132123 0.0205174 5.63232e-15), Final residual = (7.5142e-27 1.14695e-26 1.90267e-26), No Iterations 108
maxResidual = 0.0205174

ExecutionTime = 6.4 s  ClockTime = 6 s

Time = 61

         Steady solver/PNP-NS Iteration      # 1
zeroIonicFlux_nonD ############################
BiCGStab:  Solving for PNP, Initial residual = (0.0328037 0.0485753 1.26667e-14), Final residual = (1.5805e-26 2.41393e-26 4.06186e-26), No Iterations 107
maxResidual = 0.0485753

ExecutionTime = 6.5 s  ClockTime = 6 s

Time = 62

         Steady solver/PNP-NS Iteration      # 1
zeroIonicFlux_nonD ############################
BiCGStab:  Solving for PNP, Initial residual = (0.0130346 0.0202418 5.72244e-15), Final residual = (3.14779e-26 4.80461e-26 7.9645e-26), No Iterations 112
maxResidual = 0.0202418

ExecutionTime = 6.6 s  ClockTime = 6 s

Time = 63

         Steady solver/PNP-NS Iteration      # 1
zeroIonicFlux_nonD ############################
BiCGStab:  Solving for PNP, Initial residual = (0.0318862 0.0471911 1.2106e-14), Final residual = (1.47071e-26 2.2448e-26 3.72372e-26), No Iterations 115
maxResidual = 0.0471911

ExecutionTime = 6.71 s  ClockTime = 7 s

Time = 64

         Steady solver/PNP-NS Iteration      # 1
zeroIonicFlux_nonD ############################
BiCGStab:  Solving for PNP, Initial residual = (0.0128592 0.0199699 5.79297e-15), Final residual = (3.97736e-27 6.07018e-27 1.01375e-26), No Iterations 116
maxResidual = 0.0199699

ExecutionTime = 6.82 s  ClockTime = 7 s

Time = 65

         Steady solver/PNP-NS Iteration      # 1
zeroIonicFlux_nonD ############################
BiCGStab:  Solving for PNP, Initial residual = (0.0310042 0.0458621 1.23651e-14), Final residual = (1.92643e-26 2.94032e-26 4.88179e-26), No Iterations 111
maxResidual = 0.0458621

ExecutionTime = 6.92 s  ClockTime = 7 s

Time = 66

         Steady solver/PNP-NS Iteration      # 1
zeroIonicFlux_nonD ############################
BiCGStab:  Solving for PNP, Initial residual = (0.0126862 0.0197017 5.83801e-15), Final residual = (1.52883e-26 2.33325e-26 3.86641e-26), No Iterations 108
maxResidual = 0.0197017

ExecutionTime = 7.02 s  ClockTime = 7 s

Time = 67

         Steady solver/PNP-NS Iteration      # 1
zeroIonicFlux_nonD ############################
BiCGStab:  Solving for PNP, Initial residual = (0.0301558 0.044585 1.25869e-14), Final residual = (2.75082e-26 4.1942e-26 6.96903e-26), No Iterations 112
maxResidual = 0.044585

ExecutionTime = 7.13 s  ClockTime = 7 s

Time = 68

         Steady solver/PNP-NS Iteration      # 1
zeroIonicFlux_nonD ############################
BiCGStab:  Solving for PNP, Initial residual = (0.0125154 0.019437 5.91586e-15), Final residual = (2.61631e-26 3.98227e-26 6.62279e-26), No Iterations 106
maxResidual = 0.019437

ExecutionTime = 7.23 s  ClockTime = 7 s

Time = 69

         Steady solver/PNP-NS Iteration      # 1
zeroIonicFlux_nonD ############################
BiCGStab:  Solving for PNP, Initial residual = (0.0293391 0.0433568 1.22151e-14), Final residual = (1.19788e-26 1.82841e-26 3.03153e-26), No Iterations 116
maxResidual = 0.0433568

ExecutionTime = 7.34 s  ClockTime = 7 s

Time = 70

         Steady solver/PNP-NS Iteration      # 1
zeroIonicFlux_nonD ############################
BiCGStab:  Solving for PNP, Initial residual = (0.0123469 0.0191756 5.90273e-15), Final residual = (2.63107e-26 4.0156e-26 6.65357e-26), No Iterations 112
maxResidual = 0.0191756

ExecutionTime = 7.45 s  ClockTime = 7 s

Time = 71

         Steady solver/PNP-NS Iteration      # 1
zeroIonicFlux_nonD ############################
BiCGStab:  Solving for PNP, Initial residual = (0.0285524 0.0421748 1.221e-14), Final residual = (2.27578e-27 3.47351e-27 5.78193e-27), No Iterations 116
maxResidual = 0.0421748

ExecutionTime = 7.56 s  ClockTime = 7 s

Time = 72

         Steady solver/PNP-NS Iteration      # 1
zeroIonicFlux_nonD ############################
BiCGStab:  Solving for PNP, Initial residual = (0.0121804 0.0189176 6.19418e-15), Final residual = (1.61649e-26 2.46723e-26 4.10592e-26), No Iterations 107
maxResidual = 0.0189176

ExecutionTime = 7.67 s  ClockTime = 8 s

Time = 73

         Steady solver/PNP-NS Iteration      # 1
zeroIonicFlux_nonD ############################
BiCGStab:  Solving for PNP, Initial residual = (0.0277942 0.0410365 1.24187e-14), Final residual = (1.43673e-26 2.19292e-26 3.63908e-26), No Iterations 115
maxResidual = 0.0410365

ExecutionTime = 7.77 s  ClockTime = 8 s

Time = 74

         Steady solver/PNP-NS Iteration      # 1
zeroIonicFlux_nonD ############################
BiCGStab:  Solving for PNP, Initial residual = (0.0120161 0.0186629 6.04734e-15), Final residual = (1.79962e-26 2.74653e-26 4.5623e-26), No Iterations 111
maxResidual = 0.0186629

ExecutionTime = 7.88 s  ClockTime = 8 s

Time = 75

         Steady solver/PNP-NS Iteration      # 1
zeroIonicFlux_nonD ############################
BiCGStab:  Solving for PNP, Initial residual = (0.0270629 0.0399397 1.22015e-14), Final residual = (2.90251e-27 4.43223e-27 7.35552e-27), No Iterations 116
maxResidual = 0.0399397

ExecutionTime = 7.99 s  ClockTime = 8 s

Time = 76

         Steady solver/PNP-NS Iteration      # 1
zeroIonicFlux_nonD ############################
BiCGStab:  Solving for PNP, Initial residual = (0.0118537 0.0184113 5.94519e-15), Final residual = (2.3376e-26 3.56928e-26 5.92892e-26), No Iterations 107
maxResidual = 0.0184113

ExecutionTime = 8.09 s  ClockTime = 8 s

Time = 77

         Steady solver/PNP-NS Iteration      # 1
zeroIonicFlux_nonD ############################
BiCGStab:  Solving for PNP, Initial residual = (0.0263573 0.0388822 1.22075e-14), Final residual = (2.56037e-26 3.90417e-26 6.51712e-26), No Iterations 113
maxResidual = 0.0388822

ExecutionTime = 8.19 s  ClockTime = 8 s

Time = 78

         Steady solver/PNP-NS Iteration      # 1
zeroIonicFlux_nonD ############################
BiCGStab:  Solving for PNP, Initial residual = (0.0116934 0.0181627 6.15714e-15), Final residual = (2.77827e-26 4.23493e-26 7.06081e-26), No Iterations 108
maxResidual = 0.0181627

ExecutionTime = 8.3 s  ClockTime = 8 s

Time = 79

         Steady solver/PNP-NS Iteration      # 1
zeroIonicFlux_nonD ############################
BiCGStab:  Solving for PNP, Initial residual = (0.0256761 0.037862 1.26773e-14), Final residual = (1.71066e-26 2.6172e-26 4.3393e-26), No Iterations 109
maxResidual = 0.037862

ExecutionTime = 8.4 s  ClockTime = 8 s

Time = 80

         Steady solver/PNP-NS Iteration      # 1
zeroIonicFlux_nonD ############################
BiCGStab:  Solving for PNP, Initial residual = (0.011535 0.0179173 6.1634e-15), Final residual = (2.97701e-26 4.54335e-26 7.55543e-26), No Iterations 109
maxResidual = 0.0179173

ExecutionTime = 8.51 s  ClockTime = 8 s

Time = 81

         Steady solver/PNP-NS Iteration      # 1
zeroIonicFlux_nonD ############################
BiCGStab:  Solving for PNP, Initial residual = (0.025018 0.0368772 1.22034e-14), Final residual = (1.46287e-26 2.23356e-26 3.73201e-26), No Iterations 109
maxResidual = 0.0368772

ExecutionTime = 8.61 s  ClockTime = 8 s

Time = 82

         Steady solver/PNP-NS Iteration      # 1
zeroIonicFlux_nonD ############################
BiCGStab:  Solving for PNP, Initial residual = (0.0113785 0.0176747 6.13891e-15), Final residual = (1.89459e-26 2.89114e-26 4.81119e-26), No Iterations 109
maxResidual = 0.0176747

ExecutionTime = 8.71 s  ClockTime = 9 s

Time = 83

         Steady solver/PNP-NS Iteration      # 1
zeroIonicFlux_nonD ############################
BiCGStab:  Solving for PNP, Initial residual = (0.0243821 0.0359263 1.18297e-14), Final residual = (3.04391e-27 4.64608e-27 7.70802e-27), No Iterations 110
maxResidual = 0.0359263

ExecutionTime = 8.81 s  ClockTime = 9 s

Time = 84

         Steady solver/PNP-NS Iteration      # 1
zeroIonicFlux_nonD ############################
BiCGStab:  Solving for PNP, Initial residual = (0.0112239 0.0174351 6.40362e-15), Final residual = (1.07613e-26 1.64236e-26 2.72425e-26), No Iterations 108
maxResidual = 0.0174351

ExecutionTime = 8.91 s  ClockTime = 9 s

Time = 85

         Steady solver/PNP-NS Iteration      # 1
zeroIonicFlux_nonD ############################
BiCGStab:  Solving for PNP, Initial residual = (0.0237673 0.0350075 1.23064e-14), Final residual = (2.4949e-26 3.80793e-26 6.33042e-26), No Iterations 107
maxResidual = 0.0350075

ExecutionTime = 9.02 s  ClockTime = 9 s

Time = 86

         Steady solver/PNP-NS Iteration      # 1
zeroIonicFlux_nonD ############################
BiCGStab:  Solving for PNP, Initial residual = (0.0110711 0.0171984 6.21302e-15), Final residual = (2.5951e-26 3.96028e-26 6.6012e-26), No Iterations 107
maxResidual = 0.0171984

ExecutionTime = 9.12 s  ClockTime = 9 s

Time = 87

         Steady solver/PNP-NS Iteration      # 1
zeroIonicFlux_nonD ############################
BiCGStab:  Solving for PNP, Initial residual = (0.0231726 0.0341194 1.18972e-14), Final residual = (2.01904e-26 3.0818e-26 5.11545e-26), No Iterations 108
maxResidual = 0.0341194

ExecutionTime = 9.22 s  ClockTime = 9 s

Time = 88

         Steady solver/PNP-NS Iteration      # 1
zeroIonicFlux_nonD ############################
BiCGStab:  Solving for PNP, Initial residual = (0.0109202 0.0169645 6.40119e-15), Final residual = (2.47175e-26 3.77255e-26 6.28277e-26), No Iterations 107
maxResidual = 0.0169645

ExecutionTime = 9.32 s  ClockTime = 9 s

Time = 89

         Steady solver/PNP-NS Iteration      # 1
zeroIonicFlux_nonD ############################
BiCGStab:  Solving for PNP, Initial residual = (0.0225972 0.0332605 1.16887e-14), Final residual = (1.25967e-26 1.92277e-26 3.20406e-26), No Iterations 111
maxResidual = 0.0332605

ExecutionTime = 9.42 s  ClockTime = 9 s

Time = 90

         Steady solver/PNP-NS Iteration      # 1
zeroIonicFlux_nonD ############################
BiCGStab:  Solving for PNP, Initial residual = (0.010771 0.0167335 6.51002e-15), Final residual = (2.02239e-26 3.06966e-26 5.13457e-26), No Iterations 108
maxResidual = 0.0167335

ExecutionTime = 9.53 s  ClockTime = 9 s

Time = 91

         Steady solver/PNP-NS Iteration      # 1
zeroIonicFlux_nonD ############################
BiCGStab:  Solving for PNP, Initial residual = (0.0220404 0.0324296 1.19384e-14), Final residual = (2.03444e-26 3.10343e-26 5.21127e-26), No Iterations 111
maxResidual = 0.0324296

ExecutionTime = 9.64 s  ClockTime = 10 s

Time = 92

         Steady solver/PNP-NS Iteration      # 1
zeroIonicFlux_nonD ############################
BiCGStab:  Solving for PNP, Initial residual = (0.0106236 0.0165055 6.47772e-15), Final residual = (2.43378e-26 3.71344e-26 6.17649e-26), No Iterations 107
maxResidual = 0.0165055

ExecutionTime = 9.74 s  ClockTime = 10 s

Time = 93

         Steady solver/PNP-NS Iteration      # 1
zeroIonicFlux_nonD ############################
BiCGStab:  Solving for PNP, Initial residual = (0.0215014 0.0316259 1.18968e-14), Final residual = (3.17529e-26 4.84498e-26 8.14501e-26), No Iterations 111
maxResidual = 0.0316259

ExecutionTime = 9.84 s  ClockTime = 10 s

Time = 94

         Steady solver/PNP-NS Iteration      # 1
zeroIonicFlux_nonD ############################
BiCGStab:  Solving for PNP, Initial residual = (0.0104782 0.0162802 6.29812e-15), Final residual = (2.34077e-26 3.57432e-26 6.03427e-26), No Iterations 108
maxResidual = 0.0162802

ExecutionTime = 9.94 s  ClockTime = 10 s

Time = 95

         Steady solver/PNP-NS Iteration      # 1
zeroIonicFlux_nonD ############################
BiCGStab:  Solving for PNP, Initial residual = (0.0209792 0.030848 1.17625e-14), Final residual = (7.30753e-27 1.12236e-26 2.00871e-26), No Iterations 114
maxResidual = 0.030848

ExecutionTime = 10.05 s  ClockTime = 10 s

Time = 96

         Steady solver/PNP-NS Iteration      # 1
zeroIonicFlux_nonD ############################
BiCGStab:  Solving for PNP, Initial residual = (0.0103345 0.0160575 6.54868e-15), Final residual = (2.66126e-26 4.07791e-26 7.33561e-26), No Iterations 110
maxResidual = 0.0160575

ExecutionTime = 10.15 s  ClockTime = 10 s

Time = 97

         Steady solver/PNP-NS Iteration      # 1
zeroIonicFlux_nonD ############################
BiCGStab:  Solving for PNP, Initial residual = (0.0204732 0.0300946 1.15605e-14), Final residual = (2.80395e-26 4.29921e-26 7.36211e-26), No Iterations 109
maxResidual = 0.0300946

ExecutionTime = 10.25 s  ClockTime = 10 s

Time = 98

         Steady solver/PNP-NS Iteration      # 1
zeroIonicFlux_nonD ############################
BiCGStab:  Solving for PNP, Initial residual = (0.0101926 0.0158375 6.63227e-15), Final residual = (1.6841e-26 2.57892e-26 4.57245e-26), No Iterations 109
maxResidual = 0.0158375

ExecutionTime = 10.36 s  ClockTime = 10 s

Time = 99

         Steady solver/PNP-NS Iteration      # 1
zeroIonicFlux_nonD ############################
BiCGStab:  Solving for PNP, Initial residual = (0.0199826 0.0293645 1.2128e-14), Final residual = (2.1883e-26 3.32191e-26 5.5674e-26), No Iterations 110
maxResidual = 0.0293645

ExecutionTime = 10.46 s  ClockTime = 10 s

Time = 100

         Steady solver/PNP-NS Iteration      # 1
zeroIonicFlux_nonD ############################
BiCGStab:  Solving for PNP, Initial residual = (0.0100523 0.01562 6.6657e-15), Final residual = (2.30529e-26 3.52895e-26 6.09159e-26), No Iterations 106
maxResidual = 0.01562

ExecutionTime = 10.57 s  ClockTime = 10 s

Time = 101

         Steady solver/PNP-NS Iteration      # 1
zeroIonicFlux_nonD ############################
BiCGStab:  Solving for PNP, Initial residual = (0.0195069 0.0286569 1.17609e-14), Final residual = (3.14546e-26 4.80025e-26 7.96354e-26), No Iterations 107
maxResidual = 0.0286569

ExecutionTime = 10.66 s  ClockTime = 11 s

Time = 102

         Steady solver/PNP-NS Iteration      # 1
zeroIonicFlux_nonD ############################
BiCGStab:  Solving for PNP, Initial residual = (0.00991363 0.0154052 6.68757e-15), Final residual = (1.78094e-26 2.71761e-26 4.50973e-26), No Iterations 108
maxResidual = 0.0154052

ExecutionTime = 10.77 s  ClockTime = 11 s

Time = 103

         Steady solver/PNP-NS Iteration      # 1
zeroIonicFlux_nonD ############################
BiCGStab:  Solving for PNP, Initial residual = (0.0190454 0.0279709 1.16841e-14), Final residual = (2.97085e-26 4.53402e-26 7.55043e-26), No Iterations 108
maxResidual = 0.0279709

ExecutionTime = 10.87 s  ClockTime = 11 s

Time = 104

         Steady solver/PNP-NS Iteration      # 1
zeroIonicFlux_nonD ############################
BiCGStab:  Solving for PNP, Initial residual = (0.00977663 0.0151929 6.89149e-15), Final residual = (2.92189e-26 4.43303e-26 7.42432e-26), No Iterations 107
maxResidual = 0.0151929

ExecutionTime = 10.97 s  ClockTime = 11 s

Time = 105

         Steady solver/PNP-NS Iteration      # 1
zeroIonicFlux_nonD ############################
BiCGStab:  Solving for PNP, Initial residual = (0.0185976 0.0273055 1.11156e-14), Final residual = (1.96539e-26 3.00091e-26 5.03982e-26), No Iterations 109
maxResidual = 0.0273055

ExecutionTime = 11.07 s  ClockTime = 11 s

Time = 106

         Steady solver/PNP-NS Iteration      # 1
zeroIonicFlux_nonD ############################
BiCGStab:  Solving for PNP, Initial residual = (0.00964126 0.0149831 6.58123e-15), Final residual = (2.92998e-26 4.47044e-26 7.45188e-26), No Iterations 107
maxResidual = 0.0149831

ExecutionTime = 11.17 s  ClockTime = 11 s

Time = 107

         Steady solver/PNP-NS Iteration      # 1
zeroIonicFlux_nonD ############################
BiCGStab:  Solving for PNP, Initial residual = (0.0181629 0.0266599 1.21799e-14), Final residual = (2.51331e-26 3.83591e-26 6.38154e-26), No Iterations 114
maxResidual = 0.0266599

ExecutionTime = 11.28 s  ClockTime = 11 s

Time = 108

         Steady solver/PNP-NS Iteration      # 1
zeroIonicFlux_nonD ############################
BiCGStab:  Solving for PNP, Initial residual = (0.00950749 0.0147757 6.49994e-15), Final residual = (1.39958e-26 2.13578e-26 3.59669e-26), No Iterations 111
maxResidual = 0.0147757

ExecutionTime = 11.38 s  ClockTime = 11 s

Time = 109

         Steady solver/PNP-NS Iteration      # 1
zeroIonicFlux_nonD ############################
BiCGStab:  Solving for PNP, Initial residual = (0.0177408 0.0260333 1.17886e-14), Final residual = (1.18579e-26 1.80994e-26 3.00463e-26), No Iterations 110
maxResidual = 0.0260333

ExecutionTime = 11.49 s  ClockTime = 11 s

Time = 110

         Steady solver/PNP-NS Iteration      # 1
zeroIonicFlux_nonD ############################
BiCGStab:  Solving for PNP, Initial residual = (0.00937531 0.0145709 6.55529e-15), Final residual = (7.49982e-27 1.14617e-26 1.96341e-26), No Iterations 114
maxResidual = 0.0145709

ExecutionTime = 11.6 s  ClockTime = 12 s

Time = 111

         Steady solver/PNP-NS Iteration      # 1
zeroIonicFlux_nonD ############################
BiCGStab:  Solving for PNP, Initial residual = (0.0173309 0.0254251 1.14555e-14), Final residual = (2.86706e-26 4.3757e-26 7.29442e-26), No Iterations 109
maxResidual = 0.0254251

ExecutionTime = 11.7 s  ClockTime = 12 s

Time = 112

         Steady solver/PNP-NS Iteration      # 1
zeroIonicFlux_nonD ############################
BiCGStab:  Solving for PNP, Initial residual = (0.00924469 0.0143684 6.52783e-15), Final residual = (2.73572e-26 4.17576e-26 7.0052e-26), No Iterations 107
maxResidual = 0.0143684

ExecutionTime = 11.8 s  ClockTime = 12 s

Time = 113

         Steady solver/PNP-NS Iteration      # 1
zeroIonicFlux_nonD ############################
BiCGStab:  Solving for PNP, Initial residual = (0.0169327 0.0248345 1.16815e-14), Final residual = (2.59029e-26 3.95343e-26 6.57827e-26), No Iterations 108
maxResidual = 0.0248345

ExecutionTime = 11.91 s  ClockTime = 12 s

Time = 114

         Steady solver/PNP-NS Iteration      # 1
zeroIonicFlux_nonD ############################
BiCGStab:  Solving for PNP, Initial residual = (0.00911563 0.0141684 6.67299e-15), Final residual = (1.94012e-26 2.95949e-26 4.98741e-26), No Iterations 113
maxResidual = 0.0141684

ExecutionTime = 12.01 s  ClockTime = 12 s

Time = 115

         Steady solver/PNP-NS Iteration      # 1
zeroIonicFlux_nonD ############################
BiCGStab:  Solving for PNP, Initial residual = (0.0165458 0.0242608 1.13888e-14), Final residual = (8.59705e-27 1.31212e-26 2.18176e-26), No Iterations 109
maxResidual = 0.0242608

ExecutionTime = 12.12 s  ClockTime = 12 s

Time = 116

         Steady solver/PNP-NS Iteration      # 1
zeroIonicFlux_nonD ############################
BiCGStab:  Solving for PNP, Initial residual = (0.00898811 0.0139707 6.78991e-15), Final residual = (2.45638e-26 3.75957e-26 7.18284e-26), No Iterations 109
maxResidual = 0.0139707

ExecutionTime = 12.22 s  ClockTime = 12 s

Time = 117

         Steady solver/PNP-NS Iteration      # 1
zeroIonicFlux_nonD ############################
BiCGStab:  Solving for PNP, Initial residual = (0.0161696 0.0237034 1.14155e-14), Final residual = (1.44584e-26 2.2057e-26 3.78999e-26), No Iterations 110
maxResidual = 0.0237034

ExecutionTime = 12.32 s  ClockTime = 12 s

Time = 118

         Steady solver/PNP-NS Iteration      # 1
zeroIonicFlux_nonD ############################
BiCGStab:  Solving for PNP, Initial residual = (0.0088621 0.0137754 6.77384e-15), Final residual = (1.94876e-26 2.97327e-26 4.95545e-26), No Iterations 110
maxResidual = 0.0137754

ExecutionTime = 12.42 s  ClockTime = 12 s

Time = 119

         Steady solver/PNP-NS Iteration      # 1
zeroIonicFlux_nonD ############################
BiCGStab:  Solving for PNP, Initial residual = (0.0158039 0.0231617 1.11459e-14), Final residual = (2.50107e-26 3.81686e-26 6.42323e-26), No Iterations 111
maxResidual = 0.0231617

ExecutionTime = 12.53 s  ClockTime = 12 s

Time = 120

         Steady solver/PNP-NS Iteration      # 1
zeroIonicFlux_nonD ############################
BiCGStab:  Solving for PNP, Initial residual = (0.00873758 0.0135824 6.76219e-15), Final residual = (3.04875e-26 4.65178e-26 7.78787e-26), No Iterations 116
maxResidual = 0.0135824

ExecutionTime = 12.64 s  ClockTime = 13 s

Time = 121

         Steady solver/PNP-NS Iteration      # 1
zeroIonicFlux_nonD ############################
BiCGStab:  Solving for PNP, Initial residual = (0.0154482 0.0226351 1.16159e-14), Final residual = (2.85715e-26 4.36051e-26 7.28131e-26), No Iterations 108
maxResidual = 0.0226351

ExecutionTime = 12.74 s  ClockTime = 13 s

Time = 122

         Steady solver/PNP-NS Iteration      # 1
zeroIonicFlux_nonD ############################
BiCGStab:  Solving for PNP, Initial residual = (0.00861456 0.0133916 6.74931e-15), Final residual = (2.71919e-26 4.14189e-26 6.95224e-26), No Iterations 109
maxResidual = 0.0133916

ExecutionTime = 12.85 s  ClockTime = 13 s

Time = 123

         Steady solver/PNP-NS Iteration      # 1
zeroIonicFlux_nonD ############################
BiCGStab:  Solving for PNP, Initial residual = (0.0151022 0.022123 1.10935e-14), Final residual = (2.18308e-26 3.33159e-26 5.59627e-26), No Iterations 108
maxResidual = 0.022123

ExecutionTime = 12.95 s  ClockTime = 13 s

Time = 124

         Steady solver/PNP-NS Iteration      # 1
zeroIonicFlux_nonD ############################
BiCGStab:  Solving for PNP, Initial residual = (0.008493 0.0132032 6.40377e-15), Final residual = (2.32119e-26 3.54222e-26 5.90884e-26), No Iterations 109
maxResidual = 0.0132032

ExecutionTime = 13.05 s  ClockTime = 13 s

Time = 125

         Steady solver/PNP-NS Iteration      # 1
zeroIonicFlux_nonD ############################
BiCGStab:  Solving for PNP, Initial residual = (0.0147656 0.0216249 1.13119e-14), Final residual = (1.88594e-26 2.87835e-26 4.78813e-26), No Iterations 116
maxResidual = 0.0216249

ExecutionTime = 13.16 s  ClockTime = 13 s

Time = 126

         Steady solver/PNP-NS Iteration      # 1
zeroIonicFlux_nonD ############################
BiCGStab:  Solving for PNP, Initial residual = (0.0083729 0.013017 6.71067e-15), Final residual = (3.13886e-26 4.79026e-26 7.99868e-26), No Iterations 114
maxResidual = 0.013017

ExecutionTime = 13.27 s  ClockTime = 13 s

Time = 127

         Steady solver/PNP-NS Iteration      # 1
zeroIonicFlux_nonD ############################
BiCGStab:  Solving for PNP, Initial residual = (0.014438 0.0211404 1.08951e-14), Final residual = (1.63402e-26 2.49385e-26 4.15564e-26), No Iterations 114
maxResidual = 0.0211404

ExecutionTime = 13.38 s  ClockTime = 13 s

Time = 128

         Steady solver/PNP-NS Iteration      # 1
zeroIonicFlux_nonD ############################
BiCGStab:  Solving for PNP, Initial residual = (0.00825424 0.012833 6.80211e-15), Final residual = (2.2007e-26 3.35793e-26 5.67703e-26), No Iterations 114
maxResidual = 0.012833

ExecutionTime = 13.49 s  ClockTime = 13 s

Time = 129

         Steady solver/PNP-NS Iteration      # 1
zeroIonicFlux_nonD ############################
BiCGStab:  Solving for PNP, Initial residual = (0.0141191 0.020669 1.11928e-14), Final residual = (1.76627e-26 2.71027e-26 6.73869e-26), No Iterations 114
maxResidual = 0.020669

ExecutionTime = 13.59 s  ClockTime = 14 s

Time = 130

         Steady solver/PNP-NS Iteration      # 1
zeroIonicFlux_nonD ############################
BiCGStab:  Solving for PNP, Initial residual = (0.008137 0.0126512 6.88759e-15), Final residual = (8.88845e-27 1.35447e-26 2.29562e-26), No Iterations 109
maxResidual = 0.0126512

ExecutionTime = 13.7 s  ClockTime = 14 s

Time = 131

         Steady solver/PNP-NS Iteration      # 1
zeroIonicFlux_nonD ############################
BiCGStab:  Solving for PNP, Initial residual = (0.0138086 0.0202101 1.06647e-14), Final residual = (2.05579e-26 3.12167e-26 5.23606e-26), No Iterations 110
maxResidual = 0.0202101

ExecutionTime = 13.8 s  ClockTime = 14 s

Time = 132

         Steady solver/PNP-NS Iteration      # 1
zeroIonicFlux_nonD ############################
BiCGStab:  Solving for PNP, Initial residual = (0.00802118 0.0124716 6.86291e-15), Final residual = (2.60653e-26 3.97498e-26 6.70401e-26), No Iterations 110
maxResidual = 0.0124716

ExecutionTime = 13.9 s  ClockTime = 14 s

Time = 133

         Steady solver/PNP-NS Iteration      # 1
zeroIonicFlux_nonD ############################
BiCGStab:  Solving for PNP, Initial residual = (0.0135062 0.0197634 1.08825e-14), Final residual = (2.64488e-26 4.03667e-26 6.80015e-26), No Iterations 110
maxResidual = 0.0197634

ExecutionTime = 14.01 s  ClockTime = 14 s

Time = 134

         Steady solver/PNP-NS Iteration      # 1
zeroIonicFlux_nonD ############################
BiCGStab:  Solving for PNP, Initial residual = (0.00790676 0.0122942 6.64783e-15), Final residual = (2.82333e-26 4.29148e-26 7.37574e-26), No Iterations 112
maxResidual = 0.0122942

ExecutionTime = 14.11 s  ClockTime = 14 s

Time = 135

         Steady solver/PNP-NS Iteration      # 1
zeroIonicFlux_nonD ############################
BiCGStab:  Solving for PNP, Initial residual = (0.0132117 0.0193285 1.05763e-14), Final residual = (1.43846e-26 2.19548e-26 3.64358e-26), No Iterations 115
maxResidual = 0.0193285

ExecutionTime = 14.22 s  ClockTime = 14 s

Time = 136

         Steady solver/PNP-NS Iteration      # 1
zeroIonicFlux_nonD ############################
BiCGStab:  Solving for PNP, Initial residual = (0.00779372 0.0121189 6.91397e-15), Final residual = (2.8607e-26 4.36296e-26 7.31478e-26), No Iterations 111
maxResidual = 0.0121189

ExecutionTime = 14.33 s  ClockTime = 14 s

Time = 137

         Steady solver/PNP-NS Iteration      # 1
zeroIonicFlux_nonD ############################
BiCGStab:  Solving for PNP, Initial residual = (0.0129248 0.018905 1.07049e-14), Final residual = (2.06868e-26 3.1667e-26 5.64759e-26), No Iterations 109
maxResidual = 0.018905

ExecutionTime = 14.43 s  ClockTime = 14 s

Time = 138

         Steady solver/PNP-NS Iteration      # 1
zeroIonicFlux_nonD ############################
BiCGStab:  Solving for PNP, Initial residual = (0.00768205 0.0119457 6.57102e-15), Final residual = (2.86521e-26 4.3725e-26 7.31261e-26), No Iterations 111
maxResidual = 0.0119457

ExecutionTime = 14.53 s  ClockTime = 15 s

Time = 139

         Steady solver/PNP-NS Iteration      # 1
zeroIonicFlux_nonD ############################
BiCGStab:  Solving for PNP, Initial residual = (0.0126453 0.0184924 1.05128e-14), Final residual = (2.32566e-26 3.53374e-26 6.10739e-26), No Iterations 107
maxResidual = 0.0184924

ExecutionTime = 14.63 s  ClockTime = 15 s

Time = 140

         Steady solver/PNP-NS Iteration      # 1
zeroIonicFlux_nonD ############################
BiCGStab:  Solving for PNP, Initial residual = (0.00757174 0.0117746 6.93695e-15), Final residual = (1.87878e-26 2.86409e-26 4.84722e-26), No Iterations 114
maxResidual = 0.0117746

ExecutionTime = 14.75 s  ClockTime = 15 s

Time = 141

         Steady solver/PNP-NS Iteration      # 1
zeroIonicFlux_nonD ############################
BiCGStab:  Solving for PNP, Initial residual = (0.0123729 0.0180905 1.03793e-14), Final residual = (2.6671e-26 4.0706e-26 6.78419e-26), No Iterations 111
maxResidual = 0.0180905

ExecutionTime = 14.86 s  ClockTime = 15 s

Time = 142

         Steady solver/PNP-NS Iteration      # 1
zeroIonicFlux_nonD ############################
BiCGStab:  Solving for PNP, Initial residual = (0.00746278 0.0116056 6.76423e-15), Final residual = (2.01801e-26 3.07953e-26 5.15977e-26), No Iterations 111
maxResidual = 0.0116056

ExecutionTime = 14.96 s  ClockTime = 15 s

Time = 143

         Steady solver/PNP-NS Iteration      # 1
zeroIonicFlux_nonD ############################
BiCGStab:  Solving for PNP, Initial residual = (0.0121073 0.0176988 1.06709e-14), Final residual = (9.52034e-27 1.45122e-26 2.45083e-26), No Iterations 116
maxResidual = 0.0176988

ExecutionTime = 15.07 s  ClockTime = 15 s

Time = 144

         Steady solver/PNP-NS Iteration      # 1
zeroIonicFlux_nonD ############################
BiCGStab:  Solving for PNP, Initial residual = (0.00735515 0.0114386 6.91949e-15), Final residual = (2.87754e-26 4.39111e-26 7.34493e-26), No Iterations 110
maxResidual = 0.0114386

ExecutionTime = 15.17 s  ClockTime = 15 s

Time = 145

         Steady solver/PNP-NS Iteration      # 1
zeroIonicFlux_nonD ############################
BiCGStab:  Solving for PNP, Initial residual = (0.0118484 0.0173171 1.02473e-14), Final residual = (3.08058e-26 4.69953e-26 8.03445e-26), No Iterations 109
maxResidual = 0.0173171

ExecutionTime = 15.27 s  ClockTime = 15 s

Time = 146

         Steady solver/PNP-NS Iteration      # 1
zeroIonicFlux_nonD ############################
BiCGStab:  Solving for PNP, Initial residual = (0.00724883 0.0112737 6.88786e-15), Final residual = (1.48431e-26 2.26485e-26 3.80482e-26), No Iterations 113
maxResidual = 0.0112737

ExecutionTime = 15.38 s  ClockTime = 15 s

Time = 147

         Steady solver/PNP-NS Iteration      # 1
zeroIonicFlux_nonD ############################
BiCGStab:  Solving for PNP, Initial residual = (0.011596 0.016945 1.00956e-14), Final residual = (1.21471e-26 1.85248e-26 3.20703e-26), No Iterations 116
maxResidual = 0.016945

ExecutionTime = 15.49 s  ClockTime = 15 s

Time = 148

         Steady solver/PNP-NS Iteration      # 1
zeroIonicFlux_nonD ############################
BiCGStab:  Solving for PNP, Initial residual = (0.00714383 0.0111108 6.74938e-15), Final residual = (1.59493e-26 2.43394e-26 4.06988e-26), No Iterations 119
maxResidual = 0.0111108

ExecutionTime = 15.6 s  ClockTime = 16 s

Time = 149

         Steady solver/PNP-NS Iteration      # 1
zeroIonicFlux_nonD ############################
BiCGStab:  Solving for PNP, Initial residual = (0.0113498 0.0165822 1.02359e-14), Final residual = (2.29353e-26 3.50543e-26 5.96551e-26), No Iterations 113
maxResidual = 0.0165822

ExecutionTime = 15.7 s  ClockTime = 16 s

Time = 150

         Steady solver/PNP-NS Iteration      # 1
zeroIonicFlux_nonD ############################
BiCGStab:  Solving for PNP, Initial residual = (0.00704011 0.0109499 6.87844e-15), Final residual = (2.98321e-26 4.55219e-26 7.60683e-26), No Iterations 111
maxResidual = 0.0109499

ExecutionTime = 15.81 s  ClockTime = 16 s

Time = 151

         Steady solver/PNP-NS Iteration      # 1
zeroIonicFlux_nonD ############################
BiCGStab:  Solving for PNP, Initial residual = (0.0111097 0.0162284 1.00939e-14), Final residual = (7.52944e-27 1.14904e-26 1.92846e-26), No Iterations 110
maxResidual = 0.0162284

ExecutionTime = 15.92 s  ClockTime = 16 s

Time = 152

         Steady solver/PNP-NS Iteration      # 1
zeroIonicFlux_nonD ############################
BiCGStab:  Solving for PNP, Initial residual = (0.00693768 0.0107909 6.88192e-15), Final residual = (2.81407e-26 4.29162e-26 7.56379e-26), No Iterations 115
maxResidual = 0.0107909

ExecutionTime = 16.03 s  ClockTime = 16 s

Time = 153

         Steady solver/PNP-NS Iteration      # 1
zeroIonicFlux_nonD ############################
BiCGStab:  Solving for PNP, Initial residual = (0.0108754 0.0158834 1.01973e-14), Final residual = (1.52128e-26 2.32123e-26 3.95119e-26), No Iterations 113
maxResidual = 0.0158834

ExecutionTime = 16.13 s  ClockTime = 16 s

Time = 154

         Steady solver/PNP-NS Iteration      # 1
zeroIonicFlux_nonD ############################
BiCGStab:  Solving for PNP, Initial residual = (0.00683652 0.0106339 7.02318e-15), Final residual = (2.56361e-26 3.91118e-26 6.66205e-26), No Iterations 113
maxResidual = 0.0106339

ExecutionTime = 16.24 s  ClockTime = 16 s

Time = 155

         Steady solver/PNP-NS Iteration      # 1
zeroIonicFlux_nonD ############################
BiCGStab:  Solving for PNP, Initial residual = (0.0106469 0.0155469 9.79566e-15), Final residual = (2.03804e-26 3.11054e-26 5.20155e-26), No Iterations 112
maxResidual = 0.0155469

ExecutionTime = 16.35 s  ClockTime = 16 s

Time = 156

         Steady solver/PNP-NS Iteration      # 1
zeroIonicFlux_nonD ############################
BiCGStab:  Solving for PNP, Initial residual = (0.00673662 0.0104789 7.00845e-15), Final residual = (2.04077e-26 3.11848e-26 5.35261e-26), No Iterations 115
maxResidual = 0.0104789

ExecutionTime = 16.45 s  ClockTime = 16 s

Time = 157

         Steady solver/PNP-NS Iteration      # 1
zeroIonicFlux_nonD ############################
BiCGStab:  Solving for PNP, Initial residual = (0.0104239 0.0152186 9.96997e-15), Final residual = (2.69816e-26 4.11772e-26 6.8885e-26), No Iterations 111
maxResidual = 0.0152186

ExecutionTime = 16.56 s  ClockTime = 17 s

Time = 158

         Steady solver/PNP-NS Iteration      # 1
zeroIonicFlux_nonD ############################
BiCGStab:  Solving for PNP, Initial residual = (0.00663796 0.0103258 6.87029e-15), Final residual = (2.83519e-26 4.32375e-26 7.23148e-26), No Iterations 112
maxResidual = 0.0103258

ExecutionTime = 16.66 s  ClockTime = 17 s

Time = 159

         Steady solver/PNP-NS Iteration      # 1
zeroIonicFlux_nonD ############################
BiCGStab:  Solving for PNP, Initial residual = (0.0102062 0.0148983 9.97244e-15), Final residual = (1.40964e-27 2.14999e-27 3.61121e-27), No Iterations 119
maxResidual = 0.0148983

ExecutionTime = 16.77 s  ClockTime = 17 s

Time = 160

         Steady solver/PNP-NS Iteration      # 1
zeroIonicFlux_nonD ############################
BiCGStab:  Solving for PNP, Initial residual = (0.00654054 0.0101745 6.98853e-15), Final residual = (2.63163e-27 4.01516e-27 6.87017e-27), No Iterations 115
maxResidual = 0.0101745

ExecutionTime = 16.88 s  ClockTime = 17 s

Time = 161

         Steady solver/PNP-NS Iteration      # 1
zeroIonicFlux_nonD ############################
BiCGStab:  Solving for PNP, Initial residual = (0.00999376 0.0145857 9.95738e-15), Final residual = (3.09542e-26 4.71962e-26 8.0774e-26), No Iterations 110
maxResidual = 0.0145857

ExecutionTime = 16.99 s  ClockTime = 17 s

Time = 162

         Steady solver/PNP-NS Iteration      # 1
zeroIonicFlux_nonD ############################
BiCGStab:  Solving for PNP, Initial residual = (0.00644434 0.0100252 6.99818e-15), Final residual = (1.79982e-26 2.74799e-26 4.59021e-26), No Iterations 119
maxResidual = 0.0100252

ExecutionTime = 17.11 s  ClockTime = 17 s

Time = 163

         Steady solver/PNP-NS Iteration      # 1
zeroIonicFlux_nonD ############################
BiCGStab:  Solving for PNP, Initial residual = (0.00978636 0.0142806 9.69714e-15), Final residual = (2.18117e-26 3.32728e-26 5.66549e-26), No Iterations 111
maxResidual = 0.0142806

ExecutionTime = 17.21 s  ClockTime = 17 s

Time = 164

         Steady solver/PNP-NS Iteration      # 1
zeroIonicFlux_nonD ############################
BiCGStab:  Solving for PNP, Initial residual = (0.00634935 0.00987774 7.0632e-15), Final residual = (1.30293e-26 1.9926e-26 3.45863e-26), No Iterations 114
maxResidual = 0.00987774

ExecutionTime = 17.31 s  ClockTime = 17 s

Time = 165

         Steady solver/PNP-NS Iteration      # 1
zeroIonicFlux_nonD ############################
BiCGStab:  Solving for PNP, Initial residual = (0.00958388 0.0139828 1.00574e-14), Final residual = (1.87946e-26 2.87012e-26 4.80939e-26), No Iterations 110
maxResidual = 0.0139828

ExecutionTime = 17.41 s  ClockTime = 17 s

Time = 166

         Steady solver/PNP-NS Iteration      # 1
zeroIonicFlux_nonD ############################
BiCGStab:  Solving for PNP, Initial residual = (0.00625556 0.00973213 6.91234e-15), Final residual = (7.59994e-27 1.15975e-26 1.93869e-26), No Iterations 111
maxResidual = 0.00973213

ExecutionTime = 17.52 s  ClockTime = 18 s

Time = 167

         Steady solver/PNP-NS Iteration      # 1
zeroIonicFlux_nonD ############################
BiCGStab:  Solving for PNP, Initial residual = (0.00938618 0.0136921 9.70351e-15), Final residual = (2.04429e-26 3.11872e-26 5.37241e-26), No Iterations 110
maxResidual = 0.0136921

ExecutionTime = 17.62 s  ClockTime = 18 s

Time = 168

         Steady solver/PNP-NS Iteration      # 1
zeroIonicFlux_nonD ############################
BiCGStab:  Solving for PNP, Initial residual = (0.00616296 0.00958838 6.81207e-15), Final residual = (8.61369e-27 1.31251e-26 2.2554e-26), No Iterations 114
maxResidual = 0.00958838

ExecutionTime = 17.73 s  ClockTime = 18 s

Time = 169

         Steady solver/PNP-NS Iteration      # 1
zeroIonicFlux_nonD ############################
BiCGStab:  Solving for PNP, Initial residual = (0.00919312 0.0134083 9.77007e-15), Final residual = (1.42783e-26 2.17898e-26 3.65303e-26), No Iterations 112
maxResidual = 0.0134083

ExecutionTime = 17.83 s  ClockTime = 18 s

Time = 170

         Steady solver/PNP-NS Iteration      # 1
zeroIonicFlux_nonD ############################
BiCGStab:  Solving for PNP, Initial residual = (0.00607154 0.00944646 6.84562e-15), Final residual = (2.42588e-26 3.70019e-26 6.31681e-26), No Iterations 112
maxResidual = 0.00944646

ExecutionTime = 17.94 s  ClockTime = 18 s

Time = 171

         Steady solver/PNP-NS Iteration      # 1
zeroIonicFlux_nonD ############################
BiCGStab:  Solving for PNP, Initial residual = (0.00900457 0.0131311 9.78518e-15), Final residual = (1.42943e-26 2.17795e-26 3.76717e-26), No Iterations 111
maxResidual = 0.0131311

ExecutionTime = 18.05 s  ClockTime = 18 s

Time = 172

         Steady solver/PNP-NS Iteration      # 1
zeroIonicFlux_nonD ############################
BiCGStab:  Solving for PNP, Initial residual = (0.0059813 0.00930635 6.95119e-15), Final residual = (3.06988e-27 4.68247e-27 8.12508e-27), No Iterations 115
maxResidual = 0.00930635

ExecutionTime = 18.16 s  ClockTime = 18 s

Time = 173

         Steady solver/PNP-NS Iteration      # 1
zeroIonicFlux_nonD ############################
BiCGStab:  Solving for PNP, Initial residual = (0.00882042 0.0128605 9.83547e-15), Final residual = (2.71194e-26 4.14506e-26 7.60189e-26), No Iterations 111
maxResidual = 0.0128605

ExecutionTime = 18.26 s  ClockTime = 18 s

Time = 174

         Steady solver/PNP-NS Iteration      # 1
zeroIonicFlux_nonD ############################
BiCGStab:  Solving for PNP, Initial residual = (0.00589222 0.00916802 6.98368e-15), Final residual = (3.18285e-26 4.85757e-26 8.13341e-26), No Iterations 116
maxResidual = 0.00916802

ExecutionTime = 18.37 s  ClockTime = 18 s

Time = 175

         Steady solver/PNP-NS Iteration      # 1
zeroIonicFlux_nonD ############################
BiCGStab:  Solving for PNP, Initial residual = (0.00864054 0.0125961 9.92411e-15), Final residual = (1.56882e-26 2.39409e-26 4.02448e-26), No Iterations 111
maxResidual = 0.0125961

ExecutionTime = 18.47 s  ClockTime = 19 s

Time = 176

         Steady solver/PNP-NS Iteration      # 1
zeroIonicFlux_nonD ############################
BiCGStab:  Solving for PNP, Initial residual = (0.00580429 0.00903147 6.82063e-15), Final residual = (2.74577e-26 4.17496e-26 6.99858e-26), No Iterations 118
maxResidual = 0.00903147

ExecutionTime = 18.58 s  ClockTime = 19 s

Time = 177

         Steady solver/PNP-NS Iteration      # 1
zeroIonicFlux_nonD ############################
BiCGStab:  Solving for PNP, Initial residual = (0.00846482 0.012338 9.46262e-15), Final residual = (2.82457e-26 4.31284e-26 7.30303e-26), No Iterations 110
maxResidual = 0.012338

ExecutionTime = 18.69 s  ClockTime = 19 s

Time = 178

         Steady solver/PNP-NS Iteration      # 1
zeroIonicFlux_nonD ############################
BiCGStab:  Solving for PNP, Initial residual = (0.0057175 0.00889669 6.92139e-15), Final residual = (2.22009e-26 3.38743e-26 5.72927e-26), No Iterations 115
maxResidual = 0.00889669

ExecutionTime = 18.8 s  ClockTime = 19 s

Time = 179

         Steady solver/PNP-NS Iteration      # 1
zeroIonicFlux_nonD ############################
BiCGStab:  Solving for PNP, Initial residual = (0.00829316 0.0120858 9.93355e-15), Final residual = (3.04324e-26 4.64241e-26 7.89212e-26), No Iterations 111
maxResidual = 0.0120858

ExecutionTime = 18.9 s  ClockTime = 19 s

Time = 180

         Steady solver/PNP-NS Iteration      # 1
zeroIonicFlux_nonD ############################
BiCGStab:  Solving for PNP, Initial residual = (0.00563185 0.00876365 6.98947e-15), Final residual = (1.42485e-26 2.17387e-26 3.66709e-26), No Iterations 111
maxResidual = 0.00876365

ExecutionTime = 19.01 s  ClockTime = 19 s

Time = 181

         Steady solver/PNP-NS Iteration      # 1
zeroIonicFlux_nonD ############################
BiCGStab:  Solving for PNP, Initial residual = (0.00812545 0.0118394 9.5537e-15), Final residual = (2.71997e-26 4.1509e-26 6.94248e-26), No Iterations 108
maxResidual = 0.0118394

ExecutionTime = 19.12 s  ClockTime = 19 s

Time = 182

         Steady solver/PNP-NS Iteration      # 1
zeroIonicFlux_nonD ############################
BiCGStab:  Solving for PNP, Initial residual = (0.00554733 0.00863235 6.73154e-15), Final residual = (1.48351e-26 2.26477e-26 3.82702e-26), No Iterations 112
maxResidual = 0.00863235

ExecutionTime = 19.22 s  ClockTime = 19 s

Time = 183

         Steady solver/PNP-NS Iteration      # 1
zeroIonicFlux_nonD ############################
BiCGStab:  Solving for PNP, Initial residual = (0.00796159 0.0115987 9.54702e-15), Final residual = (2.15528e-26 3.29476e-26 5.57582e-26), No Iterations 111
maxResidual = 0.0115987

ExecutionTime = 19.33 s  ClockTime = 19 s

Time = 184

         Steady solver/PNP-NS Iteration      # 1
zeroIonicFlux_nonD ############################
BiCGStab:  Solving for PNP, Initial residual = (0.00546393 0.00850278 6.97431e-15), Final residual = (1.22911e-26 1.87414e-26 3.31698e-26), No Iterations 119
maxResidual = 0.00850278

ExecutionTime = 19.44 s  ClockTime = 20 s

Time = 185

         Steady solver/PNP-NS Iteration      # 1
zeroIonicFlux_nonD ############################
BiCGStab:  Solving for PNP, Initial residual = (0.00780148 0.0113636 9.84852e-15), Final residual = (2.06627e-26 3.15111e-26 5.56831e-26), No Iterations 111
maxResidual = 0.0113636

ExecutionTime = 19.54 s  ClockTime = 20 s

Time = 186

         Steady solver/PNP-NS Iteration      # 1
zeroIonicFlux_nonD ############################
BiCGStab:  Solving for PNP, Initial residual = (0.00538164 0.00837493 7.02534e-15), Final residual = (1.80025e-26 2.74597e-26 5.21958e-26), No Iterations 115
maxResidual = 0.00837493

ExecutionTime = 19.65 s  ClockTime = 20 s

Time = 187

         Steady solver/PNP-NS Iteration      # 1
zeroIonicFlux_nonD ############################
BiCGStab:  Solving for PNP, Initial residual = (0.00764503 0.0111338 9.36341e-15), Final residual = (1.46981e-26 2.2426e-26 3.81897e-26), No Iterations 111
maxResidual = 0.0111338

ExecutionTime = 19.75 s  ClockTime = 20 s

Time = 188

         Steady solver/PNP-NS Iteration      # 1
zeroIonicFlux_nonD ############################
BiCGStab:  Solving for PNP, Initial residual = (0.00530045 0.00824878 7.10334e-15), Final residual = (2.88755e-26 4.40634e-26 7.39275e-26), No Iterations 113
maxResidual = 0.00824878

ExecutionTime = 19.85 s  ClockTime = 20 s

Time = 189

         Steady solver/PNP-NS Iteration      # 1
zeroIonicFlux_nonD ############################
BiCGStab:  Solving for PNP, Initial residual = (0.00749214 0.0109094 9.60357e-15), Final residual = (2.48367e-26 3.79024e-26 6.35764e-26), No Iterations 118
maxResidual = 0.0109094

ExecutionTime = 19.96 s  ClockTime = 20 s

Time = 190

         Steady solver/PNP-NS Iteration      # 1
zeroIonicFlux_nonD ############################
BiCGStab:  Solving for PNP, Initial residual = (0.0052204 0.00812433 6.99454e-15), Final residual = (1.0477e-26 1.59932e-26 2.70404e-26), No Iterations 113
maxResidual = 0.00812433

ExecutionTime = 20.07 s  ClockTime = 20 s

Time = 191

         Steady solver/PNP-NS Iteration      # 1
zeroIonicFlux_nonD ############################
BiCGStab:  Solving for PNP, Initial residual = (0.00734274 0.0106901 9.47758e-15), Final residual = (2.22686e-26 3.40039e-26 5.88395e-26), No Iterations 111
maxResidual = 0.0106901

ExecutionTime = 20.18 s  ClockTime = 20 s

Time = 192

         Steady solver/PNP-NS Iteration      # 1
zeroIonicFlux_nonD ############################
BiCGStab:  Solving for PNP, Initial residual = (0.00514145 0.00800156 6.91239e-15), Final residual = (6.76261e-27 1.0319e-26 1.73168e-26), No Iterations 114
maxResidual = 0.00800156

ExecutionTime = 20.28 s  ClockTime = 20 s

Time = 193

         Steady solver/PNP-NS Iteration      # 1
zeroIonicFlux_nonD ############################
BiCGStab:  Solving for PNP, Initial residual = (0.00719674 0.0104759 9.51339e-15), Final residual = (4.47582e-27 6.82849e-27 1.16012e-26), No Iterations 122
maxResidual = 0.0104759

ExecutionTime = 20.4 s  ClockTime = 20 s

Time = 194

         Steady solver/PNP-NS Iteration      # 1
zeroIonicFlux_nonD ############################
BiCGStab:  Solving for PNP, Initial residual = (0.00506358 0.00788052 7.09522e-15), Final residual = (2.92272e-26 4.45703e-26 7.70209e-26), No Iterations 119
maxResidual = 0.00788052

ExecutionTime = 20.51 s  ClockTime = 21 s

Time = 195

         Steady solver/PNP-NS Iteration      # 1
zeroIonicFlux_nonD ############################
BiCGStab:  Solving for PNP, Initial residual = (0.00705411 0.0102665 9.32049e-15), Final residual = (1.12344e-26 1.69409e-26 3.06235e-26), No Iterations 121
maxResidual = 0.0102665

ExecutionTime = 20.62 s  ClockTime = 21 s

Time = 196

         Steady solver/PNP-NS Iteration      # 1
zeroIonicFlux_nonD ############################
BiCGStab:  Solving for PNP, Initial residual = (0.00498678 0.00776117 6.9383e-15), Final residual = (3.09493e-26 4.72041e-26 7.9684e-26), No Iterations 113
maxResidual = 0.00776117

ExecutionTime = 20.73 s  ClockTime = 21 s

Time = 197

         Steady solver/PNP-NS Iteration      # 1
zeroIonicFlux_nonD ############################
BiCGStab:  Solving for PNP, Initial residual = (0.00691472 0.0100618 9.36181e-15), Final residual = (4.9356e-27 7.53326e-27 1.26721e-26), No Iterations 123
maxResidual = 0.0100618

ExecutionTime = 20.84 s  ClockTime = 21 s

Time = 198

         Steady solver/PNP-NS Iteration      # 1
zeroIonicFlux_nonD ############################
BiCGStab:  Solving for PNP, Initial residual = (0.00491105 0.00764347 7.0576e-15), Final residual = (2.98088e-26 4.5486e-26 7.64644e-26), No Iterations 114
maxResidual = 0.00764347

ExecutionTime = 20.95 s  ClockTime = 21 s

Time = 199

         Steady solver/PNP-NS Iteration      # 1
zeroIonicFlux_nonD ############################
BiCGStab:  Solving for PNP, Initial residual = (0.00677848 0.00986185 9.15565e-15), Final residual = (1.96856e-26 3.00089e-26 5.42653e-26), No Iterations 116
maxResidual = 0.00986185

ExecutionTime = 21.06 s  ClockTime = 21 s

Time = 200

         Steady solver/PNP-NS Iteration      # 1
zeroIonicFlux_nonD ############################
BiCGStab:  Solving for PNP, Initial residual = (0.00483638 0.00752742 7.28366e-15), Final residual = (1.17482e-26 1.79388e-26 3.07251e-26), No Iterations 111
maxResidual = 0.00752742

ExecutionTime = 21.16 s  ClockTime = 21 s

Time = 201

         Steady solver/PNP-NS Iteration      # 1
zeroIonicFlux_nonD ############################
BiCGStab:  Solving for PNP, Initial residual = (0.00664533 0.0096664 9.36659e-15), Final residual = (2.13138e-26 3.24959e-26 5.82834e-26), No Iterations 120
maxResidual = 0.0096664

ExecutionTime = 21.27 s  ClockTime = 21 s

Time = 202

         Steady solver/PNP-NS Iteration      # 1
zeroIonicFlux_nonD ############################
BiCGStab:  Solving for PNP, Initial residual = (0.00476277 0.00741301 7.03769e-15), Final residual = (2.38416e-26 3.63742e-26 6.19558e-26), No Iterations 120
maxResidual = 0.00741301

ExecutionTime = 21.38 s  ClockTime = 22 s

Time = 203

         Steady solver/PNP-NS Iteration      # 1
zeroIonicFlux_nonD ############################
BiCGStab:  Solving for PNP, Initial residual = (0.0065152 0.00947537 9.52173e-15), Final residual = (1.2767e-26 1.9481e-26 3.29747e-26), No Iterations 114
maxResidual = 0.00947537

ExecutionTime = 21.49 s  ClockTime = 22 s

Time = 204

         Steady solver/PNP-NS Iteration      # 1
zeroIonicFlux_nonD ############################
BiCGStab:  Solving for PNP, Initial residual = (0.0046902 0.00730022 7.06472e-15), Final residual = (1.69405e-26 2.58533e-26 4.39656e-26), No Iterations 113
maxResidual = 0.00730022

ExecutionTime = 21.59 s  ClockTime = 22 s

Time = 205

         Steady solver/PNP-NS Iteration      # 1
zeroIonicFlux_nonD ############################
BiCGStab:  Solving for PNP, Initial residual = (0.00638801 0.00928867 9.10316e-15), Final residual = (3.12598e-26 4.7692e-26 8.14761e-26), No Iterations 117
maxResidual = 0.00928867

ExecutionTime = 21.71 s  ClockTime = 22 s

Time = 206

         Steady solver/PNP-NS Iteration      # 1
zeroIonicFlux_nonD ############################
BiCGStab:  Solving for PNP, Initial residual = (0.00461868 0.00718905 6.85616e-15), Final residual = (3.02991e-26 4.6362e-26 7.80738e-26), No Iterations 114
maxResidual = 0.00718905

ExecutionTime = 21.81 s  ClockTime = 22 s

Time = 207

         Steady solver/PNP-NS Iteration      # 1
zeroIonicFlux_nonD ############################
BiCGStab:  Solving for PNP, Initial residual = (0.00626369 0.00910618 9.53533e-15), Final residual = (3.11039e-26 4.74405e-26 8.03388e-26), No Iterations 116
maxResidual = 0.00910618

ExecutionTime = 21.92 s  ClockTime = 22 s

Time = 208

         Steady solver/PNP-NS Iteration      # 1
zeroIonicFlux_nonD ############################
BiCGStab:  Solving for PNP, Initial residual = (0.00454819 0.00707948 7.0062e-15), Final residual = (1.12455e-26 1.71584e-26 2.88798e-26), No Iterations 121
maxResidual = 0.00707948

ExecutionTime = 22.03 s  ClockTime = 22 s

Time = 209

         Steady solver/PNP-NS Iteration      # 1
zeroIonicFlux_nonD ############################
BiCGStab:  Solving for PNP, Initial residual = (0.00614218 0.00892782 9.18963e-15), Final residual = (1.37341e-26 2.09399e-26 3.6223e-26), No Iterations 111
maxResidual = 0.00892782

ExecutionTime = 22.13 s  ClockTime = 22 s

Time = 210

         Steady solver/PNP-NS Iteration      # 1
zeroIonicFlux_nonD ############################
BiCGStab:  Solving for PNP, Initial residual = (0.00447872 0.00697151 6.76268e-15), Final residual = (9.66425e-27 1.47569e-26 2.52053e-26), No Iterations 113
maxResidual = 0.00697151

ExecutionTime = 22.24 s  ClockTime = 22 s

Time = 211

         Steady solver/PNP-NS Iteration      # 1
zeroIonicFlux_nonD ############################
BiCGStab:  Solving for PNP, Initial residual = (0.00602341 0.00875348 9.06352e-15), Final residual = (9.49616e-27 1.44895e-26 2.45883e-26), No Iterations 119
maxResidual = 0.00875348

ExecutionTime = 22.35 s  ClockTime = 22 s

Time = 212

         Steady solver/PNP-NS Iteration      # 1
zeroIonicFlux_nonD ############################
BiCGStab:  Solving for PNP, Initial residual = (0.00441028 0.00686512 6.8556e-15), Final residual = (1.54503e-26 2.3578e-26 4.10015e-26), No Iterations 113
maxResidual = 0.00686512

ExecutionTime = 22.46 s  ClockTime = 23 s

Time = 213

         Steady solver/PNP-NS Iteration      # 1
zeroIonicFlux_nonD ############################
BiCGStab:  Solving for PNP, Initial residual = (0.00590732 0.00858308 8.8785e-15), Final residual = (2.56873e-26 3.90792e-26 7.00021e-26), No Iterations 108
maxResidual = 0.00858308

ExecutionTime = 22.56 s  ClockTime = 23 s

Time = 214

         Steady solver/PNP-NS Iteration      # 1
zeroIonicFlux_nonD ############################
BiCGStab:  Solving for PNP, Initial residual = (0.00434285 0.00676031 6.94905e-15), Final residual = (2.32225e-26 3.53631e-26 6.14088e-26), No Iterations 112
maxResidual = 0.00676031

ExecutionTime = 22.67 s  ClockTime = 23 s

Time = 215

         Steady solver/PNP-NS Iteration      # 1
zeroIonicFlux_nonD ############################
BiCGStab:  Solving for PNP, Initial residual = (0.00579385 0.00841652 8.89467e-15), Final residual = (1.97824e-26 3.01778e-26 5.20058e-26), No Iterations 111
maxResidual = 0.00841652

ExecutionTime = 22.77 s  ClockTime = 23 s

Time = 216

         Steady solver/PNP-NS Iteration      # 1
zeroIonicFlux_nonD ############################
BiCGStab:  Solving for PNP, Initial residual = (0.00427642 0.00665707 6.94065e-15), Final residual = (1.19446e-26 1.82212e-26 3.11912e-26), No Iterations 113
maxResidual = 0.00665707

ExecutionTime = 22.87 s  ClockTime = 23 s

Time = 217

         Steady solver/PNP-NS Iteration      # 1
zeroIonicFlux_nonD ############################
BiCGStab:  Solving for PNP, Initial residual = (0.00568294 0.00825372 9.16038e-15), Final residual = (1.13109e-26 1.72504e-26 2.96719e-26), No Iterations 111
maxResidual = 0.00825372

ExecutionTime = 22.97 s  ClockTime = 23 s

Time = 218

         Steady solver/PNP-NS Iteration      # 1
zeroIonicFlux_nonD ############################
BiCGStab:  Solving for PNP, Initial residual = (0.00421099 0.00655537 7.01213e-15), Final residual = (3.64785e-27 5.56407e-27 9.56666e-27), No Iterations 114
maxResidual = 0.00655537

ExecutionTime = 23.08 s  ClockTime = 23 s

Time = 219

         Steady solver/PNP-NS Iteration      # 1
zeroIonicFlux_nonD ############################
BiCGStab:  Solving for PNP, Initial residual = (0.00557453 0.00809459 8.92718e-15), Final residual = (1.66817e-26 2.54356e-26 4.52277e-26), No Iterations 118
maxResidual = 0.00809459

ExecutionTime = 23.19 s  ClockTime = 23 s

Time = 220

         Steady solver/PNP-NS Iteration      # 1
zeroIonicFlux_nonD ############################
BiCGStab:  Solving for PNP, Initial residual = (0.00414656 0.00645522 6.89837e-15), Final residual = (5.03765e-27 7.69131e-27 1.34367e-26), No Iterations 113
maxResidual = 0.00645522

ExecutionTime = 23.3 s  ClockTime = 23 s

Time = 221

         Steady solver/PNP-NS Iteration      # 1
zeroIonicFlux_nonD ############################
BiCGStab:  Solving for PNP, Initial residual = (0.00546856 0.00793905 8.8283e-15), Final residual = (2.52807e-26 3.85633e-26 6.6549e-26), No Iterations 109
maxResidual = 0.00793905

ExecutionTime = 23.4 s  ClockTime = 24 s

Time = 222

         Steady solver/PNP-NS Iteration      # 1
zeroIonicFlux_nonD ############################
BiCGStab:  Solving for PNP, Initial residual = (0.0040831 0.00635659 7.02134e-15), Final residual = (2.95354e-26 4.50353e-26 7.93682e-26), No Iterations 112
maxResidual = 0.00635659

ExecutionTime = 23.5 s  ClockTime = 24 s

Time = 223

         Steady solver/PNP-NS Iteration      # 1
zeroIonicFlux_nonD ############################
BiCGStab:  Solving for PNP, Initial residual = (0.00536497 0.00778702 8.80403e-15), Final residual = (1.87897e-26 2.86569e-26 4.97772e-26), No Iterations 111
maxResidual = 0.00778702

ExecutionTime = 23.61 s  ClockTime = 24 s

Time = 224

         Steady solver/PNP-NS Iteration      # 1
zeroIonicFlux_nonD ############################
BiCGStab:  Solving for PNP, Initial residual = (0.00402062 0.00625948 6.92795e-15), Final residual = (2.6139e-26 3.97267e-26 6.74409e-26), No Iterations 119
maxResidual = 0.00625948

ExecutionTime = 23.72 s  ClockTime = 24 s

Time = 225

         Steady solver/PNP-NS Iteration      # 1
zeroIonicFlux_nonD ############################
BiCGStab:  Solving for PNP, Initial residual = (0.00526372 0.00763841 8.60562e-15), Final residual = (5.9841e-27 9.12932e-27 1.56482e-26), No Iterations 112
maxResidual = 0.00763841

ExecutionTime = 23.82 s  ClockTime = 24 s

Time = 226

         Steady solver/PNP-NS Iteration      # 1
zeroIonicFlux_nonD ############################
BiCGStab:  Solving for PNP, Initial residual = (0.0039591 0.00616388 6.97749e-15), Final residual = (1.49033e-26 2.27392e-26 3.85073e-26), No Iterations 121
maxResidual = 0.00616388

ExecutionTime = 23.93 s  ClockTime = 24 s

Time = 227

         Steady solver/PNP-NS Iteration      # 1
zeroIonicFlux_nonD ############################
BiCGStab:  Solving for PNP, Initial residual = (0.00516474 0.00749315 8.50479e-15), Final residual = (6.43334e-27 9.83009e-27 1.69473e-26), No Iterations 111
maxResidual = 0.00749315

ExecutionTime = 24.03 s  ClockTime = 24 s

Time = 228

         Steady solver/PNP-NS Iteration      # 1
zeroIonicFlux_nonD ############################
BiCGStab:  Solving for PNP, Initial residual = (0.00389854 0.00606976 6.8941e-15), Final residual = (2.35099e-26 3.60011e-26 6.24929e-26), No Iterations 111
maxResidual = 0.00606976

ExecutionTime = 24.14 s  ClockTime = 24 s

Time = 229

         Steady solver/PNP-NS Iteration      # 1
zeroIonicFlux_nonD ############################
BiCGStab:  Solving for PNP, Initial residual = (0.00506799 0.00735115 8.93044e-15), Final residual = (1.87549e-26 2.86076e-26 4.84603e-26), No Iterations 118
maxResidual = 0.00735115

ExecutionTime = 24.25 s  ClockTime = 24 s

Time = 230

         Steady solver/PNP-NS Iteration      # 1
zeroIonicFlux_nonD ############################
BiCGStab:  Solving for PNP, Initial residual = (0.00383893 0.00597712 6.83509e-15), Final residual = (3.4629e-27 5.2798e-27 9.53778e-27), No Iterations 113
maxResidual = 0.00597712

ExecutionTime = 24.37 s  ClockTime = 25 s

Time = 231

         Steady solver/PNP-NS Iteration      # 1
zeroIonicFlux_nonD ############################
BiCGStab:  Solving for PNP, Initial residual = (0.00497341 0.00721234 8.92065e-15), Final residual = (3.04126e-26 4.6394e-26 8.02793e-26), No Iterations 115
maxResidual = 0.00721234

ExecutionTime = 24.49 s  ClockTime = 25 s

Time = 232

         Steady solver/PNP-NS Iteration      # 1
zeroIonicFlux_nonD ############################
BiCGStab:  Solving for PNP, Initial residual = (0.00378027 0.00588594 6.95792e-15), Final residual = (2.87639e-26 4.38301e-26 7.70501e-26), No Iterations 112
maxResidual = 0.00588594

ExecutionTime = 24.59 s  ClockTime = 25 s

Time = 233

         Steady solver/PNP-NS Iteration      # 1
zeroIonicFlux_nonD ############################
BiCGStab:  Solving for PNP, Initial residual = (0.00488095 0.00707666 8.57903e-15), Final residual = (4.48801e-27 6.84812e-27 1.16737e-26), No Iterations 113
maxResidual = 0.00707666

ExecutionTime = 24.7 s  ClockTime = 25 s

Time = 234

         Steady solver/PNP-NS Iteration      # 1
zeroIonicFlux_nonD ############################
BiCGStab:  Solving for PNP, Initial residual = (0.00372253 0.00579622 6.94936e-15), Final residual = (2.97389e-26 4.53898e-26 7.72171e-26), No Iterations 117
[...]
maxResidual = 7.30099e-06

ExecutionTime = 199.38 s  ClockTime = 203 s

Time = 1943

         Steady solver/PNP-NS Iteration      # 1
zeroIonicFlux_nonD ############################
BiCGStab:  Solving for PNP, Initial residual = (5.42945e-06 7.12439e-06 5.679e-15), Final residual = (1.16614e-26 1.77065e-26 9.11464e-26), No Iterations 102
maxResidual = 7.12439e-06

ExecutionTime = 199.48 s  ClockTime = 203 s

Time = 1944

         Steady solver/PNP-NS Iteration      # 1
zeroIonicFlux_nonD ############################
BiCGStab:  Solving for PNP, Initial residual = (5.1707e-06 7.26645e-06 5.85891e-15), Final residual = (1.10176e-26 1.67273e-26 9.73036e-26), No Iterations 95
maxResidual = 7.26645e-06

ExecutionTime = 199.57 s  ClockTime = 203 s

Time = 1945

         Steady solver/PNP-NS Iteration      # 1
zeroIonicFlux_nonD ############################
BiCGStab:  Solving for PNP, Initial residual = (5.40473e-06 7.09169e-06 5.71369e-15), Final residual = (4.39797e-27 6.68986e-27 3.55096e-26), No Iterations 103
maxResidual = 7.09169e-06

ExecutionTime = 199.67 s  ClockTime = 203 s

Time = 1946

         Steady solver/PNP-NS Iteration      # 1
zeroIonicFlux_nonD ############################
BiCGStab:  Solving for PNP, Initial residual = (5.14827e-06 7.23209e-06 5.83928e-15), Final residual = (1.24456e-26 1.89306e-26 8.60186e-26), No Iterations 95
maxResidual = 7.23209e-06

ExecutionTime = 199.76 s  ClockTime = 203 s

Time = 1947

         Steady solver/PNP-NS Iteration      # 1
zeroIonicFlux_nonD ############################
BiCGStab:  Solving for PNP, Initial residual = (5.38014e-06 7.05916e-06 5.63898e-15), Final residual = (8.60008e-27 1.30943e-26 6.09146e-26), No Iterations 101
maxResidual = 7.05916e-06

ExecutionTime = 199.85 s  ClockTime = 203 s

Time = 1948

         Steady solver/PNP-NS Iteration      # 1
zeroIonicFlux_nonD ############################
BiCGStab:  Solving for PNP, Initial residual = (5.12594e-06 7.19793e-06 6.02835e-15), Final residual = (7.14728e-27 1.08693e-26 5.30638e-26), No Iterations 95
maxResidual = 7.19793e-06

ExecutionTime = 199.94 s  ClockTime = 203 s

Time = 1949

         Steady solver/PNP-NS Iteration      # 1
zeroIonicFlux_nonD ############################
BiCGStab:  Solving for PNP, Initial residual = (5.35568e-06 7.0268e-06 5.54004e-15), Final residual = (9.69304e-27 1.47541e-26 7.19911e-26), No Iterations 100
maxResidual = 7.0268e-06

ExecutionTime = 200.04 s  ClockTime = 203 s

Time = 1950

         Steady solver/PNP-NS Iteration      # 1
zeroIonicFlux_nonD ############################
BiCGStab:  Solving for PNP, Initial residual = (5.10373e-06 7.16394e-06 5.89362e-15), Final residual = (6.83391e-27 1.03866e-26 5.30968e-26), No Iterations 98
maxResidual = 7.16394e-06

ExecutionTime = 200.14 s  ClockTime = 204 s

Time = 1951

         Steady solver/PNP-NS Iteration      # 1
zeroIonicFlux_nonD ############################
BiCGStab:  Solving for PNP, Initial residual = (5.33135e-06 6.99461e-06 5.61068e-15), Final residual = (6.32212e-27 9.62626e-27 4.57826e-26), No Iterations 102
maxResidual = 6.99461e-06

ExecutionTime = 200.23 s  ClockTime = 204 s

Time = 1952

         Steady solver/PNP-NS Iteration      # 1
zeroIonicFlux_nonD ############################
BiCGStab:  Solving for PNP, Initial residual = (5.08163e-06 7.13015e-06 5.87555e-15), Final residual = (9.58053e-27 1.45711e-26 7.08388e-26), No Iterations 96
maxResidual = 7.13015e-06

ExecutionTime = 200.33 s  ClockTime = 204 s

Time = 1953

         Steady solver/PNP-NS Iteration      # 1
zeroIonicFlux_nonD ############################
BiCGStab:  Solving for PNP, Initial residual = (5.30715e-06 6.96259e-06 5.65889e-15), Final residual = (2.91859e-27 4.42237e-27 2.43844e-26), No Iterations 102
maxResidual = 6.96259e-06

ExecutionTime = 200.43 s  ClockTime = 204 s

Time = 1954

         Steady solver/PNP-NS Iteration      # 1
zeroIonicFlux_nonD ############################
BiCGStab:  Solving for PNP, Initial residual = (5.05964e-06 7.09653e-06 5.84956e-15), Final residual = (1.06064e-26 1.61241e-26 8.98042e-26), No Iterations 98
maxResidual = 7.09653e-06

ExecutionTime = 200.52 s  ClockTime = 204 s

Time = 1955

         Steady solver/PNP-NS Iteration      # 1
zeroIonicFlux_nonD ############################
BiCGStab:  Solving for PNP, Initial residual = (5.28307e-06 6.93074e-06 5.74021e-15), Final residual = (1.03584e-26 1.57434e-26 8.49168e-26), No Iterations 108
maxResidual = 6.93074e-06

ExecutionTime = 200.62 s  ClockTime = 204 s

Time = 1956

         Steady solver/PNP-NS Iteration      # 1
zeroIonicFlux_nonD ############################
BiCGStab:  Solving for PNP, Initial residual = (5.03776e-06 7.0631e-06 6.08276e-15), Final residual = (8.26389e-27 1.25865e-26 5.63847e-26), No Iterations 96
maxResidual = 7.0631e-06

ExecutionTime = 200.71 s  ClockTime = 204 s

Time = 1957

         Steady solver/PNP-NS Iteration      # 1
zeroIonicFlux_nonD ############################
BiCGStab:  Solving for PNP, Initial residual = (5.25912e-06 6.89906e-06 5.60131e-15), Final residual = (8.14823e-27 1.23598e-26 6.99547e-26), No Iterations 101
maxResidual = 6.89906e-06

ExecutionTime = 200.81 s  ClockTime = 204 s

Time = 1958

         Steady solver/PNP-NS Iteration      # 1
zeroIonicFlux_nonD ############################
BiCGStab:  Solving for PNP, Initial residual = (5.01599e-06 7.02985e-06 5.82551e-15), Final residual = (9.01517e-27 1.37004e-26 7.03304e-26), No Iterations 95
maxResidual = 7.02985e-06

ExecutionTime = 200.9 s  ClockTime = 204 s

Time = 1959

         Steady solver/PNP-NS Iteration      # 1
zeroIonicFlux_nonD ############################
BiCGStab:  Solving for PNP, Initial residual = (5.2353e-06 6.86754e-06 5.61332e-15), Final residual = (7.1203e-27 1.08045e-26 5.83845e-26), No Iterations 102
maxResidual = 6.86754e-06

ExecutionTime = 201 s  ClockTime = 204 s

Time = 1960

         Steady solver/PNP-NS Iteration      # 1
zeroIonicFlux_nonD ############################
BiCGStab:  Solving for PNP, Initial residual = (4.99432e-06 6.99678e-06 5.82909e-15), Final residual = (1.35668e-26 2.0655e-26 9.39045e-26), No Iterations 95
maxResidual = 6.99678e-06

ExecutionTime = 201.1 s  ClockTime = 204 s

Time = 1961

         Steady solver/PNP-NS Iteration      # 1
zeroIonicFlux_nonD ############################
BiCGStab:  Solving for PNP, Initial residual = (5.2116e-06 6.83619e-06 5.66554e-15), Final residual = (1.47315e-27 2.22492e-27 1.43287e-26), No Iterations 102
maxResidual = 6.83619e-06

ExecutionTime = 201.19 s  ClockTime = 205 s

Time = 1962

         Steady solver/PNP-NS Iteration      # 1
zeroIonicFlux_nonD ############################
BiCGStab:  Solving for PNP, Initial residual = (4.97277e-06 6.96389e-06 5.77991e-15), Final residual = (5.97166e-27 9.08193e-27 4.53329e-26), No Iterations 95
maxResidual = 6.96389e-06

ExecutionTime = 201.28 s  ClockTime = 205 s

Time = 1963

         Steady solver/PNP-NS Iteration      # 1
zeroIonicFlux_nonD ############################
BiCGStab:  Solving for PNP, Initial residual = (5.18802e-06 6.80501e-06 5.61243e-15), Final residual = (3.84472e-27 5.81824e-27 4.02781e-26), No Iterations 102
maxResidual = 6.80501e-06

ExecutionTime = 201.37 s  ClockTime = 205 s

Time = 1964

         Steady solver/PNP-NS Iteration      # 1
zeroIonicFlux_nonD ############################
BiCGStab:  Solving for PNP, Initial residual = (4.95132e-06 6.93117e-06 5.96484e-15), Final residual = (7.22326e-27 1.10037e-26 4.78484e-26), No Iterations 96
maxResidual = 6.93117e-06

ExecutionTime = 201.46 s  ClockTime = 205 s

Time = 1965

         Steady solver/PNP-NS Iteration      # 1
zeroIonicFlux_nonD ############################
BiCGStab:  Solving for PNP, Initial residual = (5.16457e-06 6.77398e-06 5.75135e-15), Final residual = (1.32484e-26 2.01385e-26 9.57485e-26), No Iterations 105
maxResidual = 6.77398e-06

ExecutionTime = 201.57 s  ClockTime = 205 s

Time = 1966

         Steady solver/PNP-NS Iteration      # 1
zeroIonicFlux_nonD ############################
BiCGStab:  Solving for PNP, Initial residual = (4.92997e-06 6.89864e-06 5.88955e-15), Final residual = (1.07929e-26 1.64201e-26 8.24742e-26), No Iterations 95
maxResidual = 6.89864e-06

ExecutionTime = 201.66 s  ClockTime = 205 s

Time = 1967

         Steady solver/PNP-NS Iteration      # 1
zeroIonicFlux_nonD ############################
BiCGStab:  Solving for PNP, Initial residual = (5.14124e-06 6.74313e-06 5.74958e-15), Final residual = (8.21888e-27 1.24821e-26 5.4711e-26), No Iterations 101
maxResidual = 6.74313e-06

ExecutionTime = 201.75 s  ClockTime = 205 s

Time = 1968

         Steady solver/PNP-NS Iteration      # 1
zeroIonicFlux_nonD ############################
BiCGStab:  Solving for PNP, Initial residual = (4.90873e-06 6.86628e-06 6.05105e-15), Final residual = (1.04487e-26 1.5506e-26 8.27724e-26), No Iterations 96
maxResidual = 6.86628e-06

ExecutionTime = 201.84 s  ClockTime = 205 s

Time = 1969

         Steady solver/PNP-NS Iteration      # 1
zeroIonicFlux_nonD ############################
BiCGStab:  Solving for PNP, Initial residual = (5.11803e-06 6.71243e-06 5.58983e-15), Final residual = (3.34729e-27 5.03008e-27 2.50297e-26), No Iterations 103
maxResidual = 6.71243e-06

ExecutionTime = 201.94 s  ClockTime = 205 s

Time = 1970

         Steady solver/PNP-NS Iteration      # 1
zeroIonicFlux_nonD ############################
BiCGStab:  Solving for PNP, Initial residual = (4.8876e-06 6.83409e-06 5.98631e-15), Final residual = (2.86493e-27 4.34643e-27 2.64593e-26), No Iterations 97
maxResidual = 6.83409e-06

ExecutionTime = 202.04 s  ClockTime = 205 s

Time = 1971

         Steady solver/PNP-NS Iteration      # 1
zeroIonicFlux_nonD ############################
BiCGStab:  Solving for PNP, Initial residual = (5.09494e-06 6.68189e-06 5.71642e-15), Final residual = (1.33125e-26 2.02731e-26 9.12669e-26), No Iterations 101
maxResidual = 6.68189e-06

ExecutionTime = 202.13 s  ClockTime = 206 s

Time = 1972

         Steady solver/PNP-NS Iteration      # 1
zeroIonicFlux_nonD ############################
BiCGStab:  Solving for PNP, Initial residual = (4.86657e-06 6.80208e-06 5.69744e-15), Final residual = (8.47404e-27 1.28955e-26 6.91225e-26), No Iterations 98
maxResidual = 6.80208e-06

ExecutionTime = 202.23 s  ClockTime = 206 s

Time = 1973

         Steady solver/PNP-NS Iteration      # 1
zeroIonicFlux_nonD ############################
BiCGStab:  Solving for PNP, Initial residual = (5.07198e-06 6.65151e-06 5.70125e-15), Final residual = (4.04441e-27 6.1598e-27 2.74099e-26), No Iterations 102
maxResidual = 6.65151e-06

ExecutionTime = 202.32 s  ClockTime = 206 s

Time = 1974

         Steady solver/PNP-NS Iteration      # 1
zeroIonicFlux_nonD ############################
BiCGStab:  Solving for PNP, Initial residual = (4.84564e-06 6.77024e-06 5.85024e-15), Final residual = (6.08695e-27 9.11496e-27 9.65834e-26), No Iterations 97
maxResidual = 6.77024e-06

ExecutionTime = 202.41 s  ClockTime = 206 s

Time = 1975

         Steady solver/PNP-NS Iteration      # 1
zeroIonicFlux_nonD ############################
BiCGStab:  Solving for PNP, Initial residual = (5.04913e-06 6.62129e-06 5.74797e-15), Final residual = (9.97588e-27 1.51709e-26 7.88718e-26), No Iterations 102
maxResidual = 6.62129e-06

ExecutionTime = 202.51 s  ClockTime = 206 s

Time = 1976

         Steady solver/PNP-NS Iteration      # 1
zeroIonicFlux_nonD ############################
BiCGStab:  Solving for PNP, Initial residual = (4.82482e-06 6.73857e-06 6.07546e-15), Final residual = (4.44766e-27 6.75995e-27 3.5146e-26), No Iterations 98
maxResidual = 6.73857e-06

ExecutionTime = 202.61 s  ClockTime = 206 s

Time = 1977

         Steady solver/PNP-NS Iteration      # 1
zeroIonicFlux_nonD ############################
BiCGStab:  Solving for PNP, Initial residual = (5.0264e-06 6.59123e-06 5.52164e-15), Final residual = (4.28422e-27 6.40915e-27 3.49742e-26), No Iterations 103
maxResidual = 6.59123e-06

ExecutionTime = 202.7 s  ClockTime = 206 s

Time = 1978

         Steady solver/PNP-NS Iteration      # 1
zeroIonicFlux_nonD ############################
BiCGStab:  Solving for PNP, Initial residual = (4.8041e-06 6.70707e-06 5.92186e-15), Final residual = (4.78715e-27 6.95189e-27 4.56954e-26), No Iterations 97
maxResidual = 6.70707e-06

ExecutionTime = 202.79 s  ClockTime = 206 s

Time = 1979

         Steady solver/PNP-NS Iteration      # 1
zeroIonicFlux_nonD ############################
BiCGStab:  Solving for PNP, Initial residual = (5.00379e-06 6.56133e-06 5.56384e-15), Final residual = (4.88886e-27 7.44708e-27 3.37355e-26), No Iterations 103
maxResidual = 6.56133e-06

ExecutionTime = 202.89 s  ClockTime = 206 s

Time = 1980

         Steady solver/PNP-NS Iteration      # 1
zeroIonicFlux_nonD ############################
BiCGStab:  Solving for PNP, Initial residual = (4.78348e-06 6.67574e-06 5.89587e-15), Final residual = (4.32466e-27 6.51952e-27 5.2021e-26), No Iterations 97
maxResidual = 6.67574e-06

ExecutionTime = 202.99 s  ClockTime = 206 s

Time = 1981

         Steady solver/PNP-NS Iteration      # 1
zeroIonicFlux_nonD ############################
BiCGStab:  Solving for PNP, Initial residual = (4.98129e-06 6.53158e-06 5.72562e-15), Final residual = (9.20402e-27 1.39874e-26 7.71198e-26), No Iterations 102
maxResidual = 6.53158e-06

ExecutionTime = 203.09 s  ClockTime = 207 s

Time = 1982

         Steady solver/PNP-NS Iteration      # 1
zeroIonicFlux_nonD ############################
BiCGStab:  Solving for PNP, Initial residual = (4.76297e-06 6.64458e-06 6.03008e-15), Final residual = (3.92495e-27 5.96812e-27 3.15283e-26), No Iterations 96
maxResidual = 6.64458e-06

ExecutionTime = 203.18 s  ClockTime = 207 s

Time = 1983

         Steady solver/PNP-NS Iteration      # 1
zeroIonicFlux_nonD ############################
BiCGStab:  Solving for PNP, Initial residual = (4.95892e-06 6.50199e-06 5.45785e-15), Final residual = (1.79081e-27 2.71793e-27 1.48082e-26), No Iterations 104
maxResidual = 6.50199e-06

ExecutionTime = 203.28 s  ClockTime = 207 s

Time = 1984

         Steady solver/PNP-NS Iteration      # 1
zeroIonicFlux_nonD ############################
BiCGStab:  Solving for PNP, Initial residual = (4.74255e-06 6.61359e-06 5.84545e-15), Final residual = (5.49419e-27 8.35658e-27 4.35842e-26), No Iterations 100
maxResidual = 6.61359e-06

ExecutionTime = 203.37 s  ClockTime = 207 s

Time = 1985

         Steady solver/PNP-NS Iteration      # 1
zeroIonicFlux_nonD ############################
BiCGStab:  Solving for PNP, Initial residual = (4.93666e-06 6.47255e-06 5.52513e-15), Final residual = (2.93622e-27 4.46624e-27 2.40108e-26), No Iterations 102
maxResidual = 6.47255e-06

ExecutionTime = 203.47 s  ClockTime = 207 s

Time = 1986

         Steady solver/PNP-NS Iteration      # 1
zeroIonicFlux_nonD ############################
BiCGStab:  Solving for PNP, Initial residual = (4.72223e-06 6.58277e-06 5.81819e-15), Final residual = (9.71757e-27 1.47755e-26 7.93813e-26), No Iterations 95
maxResidual = 6.58277e-06

ExecutionTime = 203.56 s  ClockTime = 207 s

Time = 1987

         Steady solver/PNP-NS Iteration      # 1
zeroIonicFlux_nonD ############################
BiCGStab:  Solving for PNP, Initial residual = (4.91451e-06 6.44326e-06 5.70808e-15), Final residual = (5.0915e-27 7.696e-27 3.70937e-26), No Iterations 101
maxResidual = 6.44326e-06

ExecutionTime = 203.66 s  ClockTime = 207 s

Time = 1988

         Steady solver/PNP-NS Iteration      # 1
zeroIonicFlux_nonD ############################
BiCGStab:  Solving for PNP, Initial residual = (4.70202e-06 6.5521e-06 5.8891e-15), Final residual = (6.56668e-27 9.99173e-27 6.23517e-26), No Iterations 98
maxResidual = 6.5521e-06

ExecutionTime = 203.75 s  ClockTime = 207 s

Time = 1989

         Steady solver/PNP-NS Iteration      # 1
zeroIonicFlux_nonD ############################
BiCGStab:  Solving for PNP, Initial residual = (4.89248e-06 6.41413e-06 5.53752e-15), Final residual = (1.29557e-26 1.96919e-26 9.4513e-26), No Iterations 101
maxResidual = 6.41413e-06

ExecutionTime = 203.85 s  ClockTime = 207 s

Time = 1990

         Steady solver/PNP-NS Iteration      # 1
zeroIonicFlux_nonD ############################
BiCGStab:  Solving for PNP, Initial residual = (4.6819e-06 6.52161e-06 5.82238e-15), Final residual = (8.07643e-27 1.22231e-26 7.70194e-26), No Iterations 95
maxResidual = 6.52161e-06

ExecutionTime = 203.94 s  ClockTime = 207 s

Time = 1991

         Steady solver/PNP-NS Iteration      # 1
zeroIonicFlux_nonD ############################
BiCGStab:  Solving for PNP, Initial residual = (4.87056e-06 6.38515e-06 5.50954e-15), Final residual = (3.58944e-27 5.38026e-27 5.3012e-26), No Iterations 102
maxResidual = 6.38515e-06

ExecutionTime = 204.04 s  ClockTime = 207 s

Time = 1992

         Steady solver/PNP-NS Iteration      # 1
zeroIonicFlux_nonD ############################
BiCGStab:  Solving for PNP, Initial residual = (4.66188e-06 6.49127e-06 5.7962e-15), Final residual = (8.42063e-27 1.28111e-26 7.02587e-26), No Iterations 98
maxResidual = 6.49127e-06

ExecutionTime = 204.13 s  ClockTime = 208 s

Time = 1993

         Steady solver/PNP-NS Iteration      # 1
zeroIonicFlux_nonD ############################
BiCGStab:  Solving for PNP, Initial residual = (4.84876e-06 6.35631e-06 5.56507e-15), Final residual = (4.29917e-27 6.54253e-27 3.17752e-26), No Iterations 105
maxResidual = 6.35631e-06

ExecutionTime = 204.22 s  ClockTime = 208 s

Time = 1994

         Steady solver/PNP-NS Iteration      # 1
zeroIonicFlux_nonD ############################
BiCGStab:  Solving for PNP, Initial residual = (4.64196e-06 6.4611e-06 5.96312e-15), Final residual = (5.96962e-27 9.04733e-27 5.91396e-26), No Iterations 98
maxResidual = 6.4611e-06

ExecutionTime = 204.32 s  ClockTime = 208 s

Time = 1995

         Steady solver/PNP-NS Iteration      # 1
zeroIonicFlux_nonD ############################
BiCGStab:  Solving for PNP, Initial residual = (4.82706e-06 6.32763e-06 5.62434e-15), Final residual = (1.05799e-26 1.59649e-26 8.72864e-26), No Iterations 102
maxResidual = 6.32763e-06

ExecutionTime = 204.42 s  ClockTime = 208 s

Time = 1996

         Steady solver/PNP-NS Iteration      # 1
zeroIonicFlux_nonD ############################
BiCGStab:  Solving for PNP, Initial residual = (4.62213e-06 6.43109e-06 5.84409e-15), Final residual = (5.54961e-27 8.44283e-27 4.66127e-26), No Iterations 96
maxResidual = 6.43109e-06

ExecutionTime = 204.51 s  ClockTime = 208 s

Time = 1997

         Steady solver/PNP-NS Iteration      # 1
zeroIonicFlux_nonD ############################
BiCGStab:  Solving for PNP, Initial residual = (4.80548e-06 6.29909e-06 5.62026e-15), Final residual = (2.41793e-27 3.6684e-27 2.25249e-26), No Iterations 102
maxResidual = 6.29909e-06

ExecutionTime = 204.6 s  ClockTime = 208 s

Time = 1998

         Steady solver/PNP-NS Iteration      # 1
zeroIonicFlux_nonD ############################
BiCGStab:  Solving for PNP, Initial residual = (4.60241e-06 6.40124e-06 5.83871e-15), Final residual = (6.98412e-27 1.06156e-26 6.42809e-26), No Iterations 95
maxResidual = 6.40124e-06

ExecutionTime = 204.69 s  ClockTime = 208 s

Time = 1999

         Steady solver/PNP-NS Iteration      # 1
zeroIonicFlux_nonD ############################
BiCGStab:  Solving for PNP, Initial residual = (4.78401e-06 6.27071e-06 5.61706e-15), Final residual = (7.34153e-27 1.12004e-26 5.14033e-26), No Iterations 104
maxResidual = 6.27071e-06

ExecutionTime = 204.79 s  ClockTime = 208 s

Time = 2000

         Steady solver/PNP-NS Iteration      # 1
zeroIonicFlux_nonD ############################
BiCGStab:  Solving for PNP, Initial residual = (4.58277e-06 6.37155e-06 5.93702e-15), Final residual = (9.51872e-27 1.44942e-26 6.62899e-26), No Iterations 95
maxResidual = 6.37155e-06

ExecutionTime = 204.89 s  ClockTime = 208 s

End

